51
Energy:    -43.32591323
    H     -2.21678123      2.18046367      3.12935303
    O     -2.08184311      1.77330004      4.04176767
    S     -0.46916090      1.49219875      4.19242338
    C     -0.14405842      0.63909336      2.63929925
    O     -0.30706717      0.55775777      5.31790181
    O      0.25993567      2.77721684      4.15747076
    C     -0.78507122      1.09817886      1.47497881
    C      0.79574528     -0.38282672      2.54302172
    N     -1.76863768      2.05845060      1.33014371
    C     -0.46689348      0.50216321      0.22761588
    H      1.30145248     -0.72647137      3.44875600
    C      1.10950488     -0.98337367      1.28638801
    C     -2.06832619      2.07058403      0.02789005
    N     -1.30973195      1.13966533     -0.67068216
    C      0.50565107     -0.49645403      0.10326677
    C      2.06605137     -2.11747122      1.23296947
    C     -3.06218932      2.94275013     -0.59686939
    H     -1.32114449      1.00737371     -1.67773016
    H      0.76968297     -0.92602812     -0.86752531
    C      2.02663300     -3.13069261      2.23367803
    C      3.01335128     -2.19163970      0.19042310
    C     -3.53663506      4.06232094      0.11764054
    C     -3.55702568      2.68902406     -1.89611612
    H      1.28108053     -3.05089458      3.02987447
    C      2.90363009     -4.21807126      2.22607691
    H      3.07871422     -1.39750093     -0.55991835
    C      3.88855333     -3.28088070      0.19332482
    H     -3.15140681      4.25483339      1.12356159
    C     -4.48572759      4.90539746     -0.46882543
    H     -3.23236792      1.79984505     -2.44798479
    C     -4.51267283      3.52822661     -2.49191105
    H      2.85972442     -4.98902968      3.00038201
    C      3.85130496     -4.30100171      1.19108615
    N      4.92359675     -3.66223092     -0.64942552
    H     -4.85168820      5.77463827      0.08539767
    C     -4.96747661      4.64470887     -1.76011949
    C     -5.04337525      3.24601433     -3.87879430
    N      4.82820671     -5.25969396      0.94526272
    H      5.24072695     -3.16729087     -1.47824865
    C      5.45217926     -4.84840917     -0.15091705
    H     -5.70789331      5.31552842     -2.21007198
    H     -6.13933203      3.11554437     -3.86625097
    H     -4.82423300      4.08148524     -4.56686554
    H     -4.60012584      2.33203674     -4.30463104
    C      6.59659933     -5.54407067     -0.80943338
    H      6.83052801     -6.45217912     -0.23694984
    H      7.49793546     -4.90657635     -0.83779121
    H      6.35314345     -5.83537286     -1.84682158
    O     -1.07277180      0.69342063     -3.37416377
    H     -0.56146991      1.27944310     -3.94059825
    H     -1.18882447     -0.09350358     -3.90130897
