51
Energy:    -43.32589444
    H     -0.94021059      2.84401886      3.23866486
    O     -0.95704912      2.39645461      4.14193321
    S      0.38341471      1.44775428      4.21665529
    C      0.24898834      0.57534538      2.64614350
    O      0.17319623      0.50719205      5.32899826
    O      1.59149246      2.29670775      4.15419598
    C     -0.17851409      1.29277588      1.51484595
    C      0.65451877     -0.74810167      2.50173452
    N     -0.65955475      2.58511120      1.42012888
    C     -0.19671102      0.64816292      0.25130766
    H      0.99923200     -1.29704541      3.38151833
    C      0.63002266     -1.39469017      1.22911782
    C     -0.97639502      2.75590030      0.13316800
    N     -0.71919217      1.60682474     -0.60409047
    C      0.24725165     -0.66759354      0.07745691
    C      1.00420821     -2.82766202      1.12621568
    C     -1.52357439      3.98464057     -0.44090003
    H     -0.82620475      1.51650456     -1.61015586
    H      0.26260811     -1.14533963     -0.90651812
    C      0.57339864     -3.75000288      2.12284974
    C      1.78580027     -3.27552936      0.04071594
    C     -1.44277523      5.18193377      0.30006049
    C     -2.13049950      3.99887847     -1.71711364
    H     -0.03350448     -3.37758142      2.95297977
    C      0.89767585     -5.10778922      2.06960943
    H      2.15590713     -2.56821244     -0.70805952
    C      2.10807483     -4.63448152     -0.00195885
    H     -0.97265739      5.16645605      1.28803248
    C     -1.96052550      6.36428972     -0.23796002
    H     -2.24111185      3.06994791     -2.28759933
    C     -2.65619689      5.18076965     -2.26416893
    H      0.55783047     -5.80394422      2.84144254
    C      1.67614480     -5.56391298      0.99159820
    N      2.84490524     -5.40220963     -0.89338776
    H     -1.89564645      7.29285798      0.33668918
    C     -2.55831499      6.36643842     -1.50686668
    C     -3.31118692      5.18676360     -3.62640464
    N      2.13636018     -6.84254994      0.69639263
    H      3.31064491     -5.07113612     -1.73360314
    C      2.83245987     -6.71209893     -0.42545172
    H     -2.95630099      7.30048875     -1.91897119
    H     -4.35559417      5.53834416     -3.56390981
    H     -2.78211169      5.86400107     -4.31987837
    H     -3.32043943      4.18157041     -4.07658575
    C      3.54037123     -7.81502379     -1.13938747
    H      3.38434757     -8.74926329     -0.58263422
    H      4.62617923     -7.62487787     -1.20628682
    H      3.15452447     -7.94877494     -2.16580595
    O     -0.80411535      1.16739638     -3.31772073
    H     -0.11365243      1.49117337     -3.90434618
    H     -1.26751867      0.51911821     -3.84269005
