51
Energy:    -43.32583989
    H      0.38307634      3.00641989      3.20563254
    O      0.11732164      2.63625524      4.10498985
    S      0.84299961      1.16707957      4.23679780
    C      0.37838772      0.43508813      2.65755769
    O      0.16444899      0.45820220      5.33371071
    O      2.31060337      1.34088208      4.23417053
    C      0.39114769      1.24940752      1.51125053
    C      0.11359680     -0.92479772      2.52558334
    N      0.58503129      2.61348066      1.40072618
    C      0.12361220      0.66828585      0.24511137
    H      0.11871081     -1.55597185      3.41764784
    C     -0.16002577     -1.50483313      1.25007575
    C      0.44255272      2.89135538      0.10137615
    N      0.15542151      1.74484990     -0.62880111
    C     -0.10247397     -0.70356047      0.08553468
    C     -0.50609676     -2.94555975      1.15758965
    C      0.56866070      4.22235018     -0.49133933
    H      0.06160112      1.69834703     -1.63915363
    H     -0.27335427     -1.14875569     -0.89898812
    C     -1.36502901     -3.53589097      2.12884319
    C      0.01534614     -3.72936028      0.10709690
    C      1.17572692      5.25119002      0.25834139
    C      0.09639204      4.50005968     -1.79407558
    H     -1.75768942     -2.90579182      2.93192342
    C     -1.72146241     -4.88589876      2.08403008
    H      0.70831038     -3.29520807     -0.62040116
    C     -0.34385394     -5.07925950      0.07274006
    H      1.53945585      5.03215206      1.26683663
    C      1.30417330      6.52803560     -0.29723388
    H     -0.41693656      3.72461381     -2.37353952
    C      0.21801674      5.78010334     -2.35904431
    H     -2.38351068     -5.32415950      2.83600921
    C     -1.20700205     -5.67535642      1.04083396
    N     -0.02177051     -6.12003813     -0.78750009
    H      1.77693523      7.32490908      0.28428037
    C      0.83389229      6.79090089     -1.59230863
    C     -0.29674168      6.07181985     -3.74996460
    N     -1.39599319     -7.02435995      0.76096111
    H      0.58079086     -6.06406000     -1.60375448
    C     -0.67392846     -7.25913346     -0.32697774
    H      0.94451094      7.79459646     -2.01778687
    H     -1.05111643      6.87740247     -3.73395253
    H      0.51938057      6.40512679     -4.41504201
    H     -0.76225751      5.18331372     -4.20495236
    C     -0.54383505     -8.57819155     -1.01286945
    H     -1.14792099     -9.31695986     -0.46842243
    H      0.50402644     -8.92653625     -1.02875277
    H     -0.90257667     -8.53114757     -2.05660951
    O     -0.01133459      1.35048417     -3.34555716
    H      0.77452301      1.29801975     -3.89816490
    H     -0.70374330      0.99009938     -3.89445877
