51
Energy:    -43.32580215
    H      3.13451007     -0.18338007      3.09880756
    O      2.77675506      0.04740960      4.01272138
    S      1.37053565     -0.78614095      4.18650125
    C      0.55259060     -0.36515179      2.63749866
    O      0.65148428     -0.17029928      5.31338198
    O      1.65201033     -2.23676400      4.16326797
    C      1.32589397     -0.30886496      1.46441184
    C     -0.82685160     -0.20089413      2.55395432
    N      2.69597041     -0.40027114      1.30617953
    C      0.68358916     -0.07558602      0.22126604
    H     -1.42500464     -0.25951115      3.46662238
    C     -1.46884393      0.03860621      1.30147062
    C      2.91790738     -0.22778264     -0.00027242
    N      1.72900225     -0.02091477     -0.68859522
    C     -0.70586193      0.04939635      0.11014865
    C     -2.93350653      0.27762805      1.26092396
    C      4.23349855     -0.25041279     -0.63860598
    H      1.64112661      0.07682623     -1.69581991
    H     -1.19591161      0.19423730     -0.85709300
    C     -3.55202411      1.08308531      2.26005539
    C     -3.71219040     -0.29252921      0.23216105
    C      5.32941384     -0.78519505      0.06994157
    C      4.43080976      0.25096258     -1.94511776
    H     -2.92549816      1.51529372      3.04542545
    C     -4.92540106      1.33880485      2.26420905
    H     -3.25323782     -0.94589594     -0.51644796
    C     -5.08530530     -0.03412158      0.24678875
    H      5.17249041     -1.17176214      1.08151457
    C      6.59247995     -0.81445100     -0.52947906
    H      3.60019711      0.70976397     -2.49300908
    C      5.69623807      0.22881729     -2.55396486
    H     -5.38532794      1.96085217      3.03711098
    C     -5.70998887      0.77513633      1.24299861
    N     -6.12831619     -0.42595686     -0.58119941
    H      7.44152472     -1.23122576      0.02014970
    C      6.77540528     -0.31621586     -1.82785538
    C      5.90135322      0.77426831     -3.94864940
    N     -7.07805432      0.86572809      1.01051837
    H     -6.05599658     -1.01653185     -1.40489599
    C     -7.29600457      0.13648277     -0.07613059
    H      7.76936665     -0.34892154     -2.28790336
    H      6.64912441      1.58613481     -3.95211856
    H      6.27102423     -0.00986000     -4.63272772
    H      4.96584772      1.17607009     -4.36882411
    C     -8.62457384     -0.08583827     -0.71859697
    H     -9.38684010      0.45770128     -0.14358749
    H     -8.89495397     -1.15648668     -0.73331308
    H     -8.63991280      0.28327340     -1.75966531
    O      1.23058915      0.13665484     -3.38875240
    H      1.21735544     -0.64674570     -3.94715051
    H      0.80151201      0.80457757     -3.91825409
