51
Energy:    -43.32578270
    H      2.94951810     -0.97675613      3.13172193
    O      2.63944181     -0.68793656      4.04655904
    S      1.07455139     -1.17281386      4.18246701
    C      0.40516915     -0.53967120      2.63432852
    O      0.49941471     -0.42966417      5.31520808
    O      1.00971618     -2.64821209      4.12704624
    C      1.19088604     -0.64122121      1.47259035
    C     -0.89602648     -0.05551572      2.53786928
    N      2.50428004     -1.04728956      1.32904001
    C      0.64298388     -0.23805965      0.22774097
    H     -1.50739767      0.00826555      3.44138642
    C     -1.44200598      0.35381637      1.28384231
    C      2.78348601     -0.90408662      0.03005504
    N      1.68819531     -0.41037734     -0.66756049
    C     -0.67662879      0.21084092      0.10263032
    C     -2.80934601      0.92967842      1.23115320
    C      4.06848563     -1.22046260     -0.59239512
    H      1.64344707     -0.27363655     -1.67308351
    H     -1.10206285      0.48661675     -0.86671872
    C     -3.24018623      1.83630252      2.24209259
    C     -3.68132516      0.57928584      0.17917488
    C      4.99641047     -2.01157973      0.11623113
    C      4.40058524     -0.75181285     -1.88365779
    H     -2.54404416      2.09332244      3.04550530
    C     -4.51567255      2.40609788      2.23562137
    H     -3.37451743     -0.14743805     -0.57956250
    C     -4.95611434      1.15141257      0.18324304
    H      4.73562177     -2.37188239      1.11598623
    C      6.22810950     -2.32292531     -0.46813042
    H      3.70998196     -0.09999888     -2.43028989
    C      5.63640892     -1.05660121     -2.47723836
    H     -4.83117461      3.10209597      3.01786053
    C     -5.39200928      2.06323500      1.19127948
    N     -6.04696265      1.03197387     -0.66690716
    H      6.94641917     -2.93823757      0.08149859
    C      6.54534587     -1.85413319     -1.75151502
    C      5.98795442     -0.54508127     -3.85546081
    N     -6.69671517      2.47625525      0.94426972
    H     -6.10002736      0.45832087     -1.50392053
    C     -7.05970686      1.84125251     -0.16257966
    H      7.51215440     -2.10880162     -2.19995482
    H      6.90463916      0.06919041     -3.82976277
    H      6.17627413     -1.37937592     -4.55400581
    H      5.17979861      0.07318400     -4.27711736
    C     -8.39185212      1.94949443     -0.82662687
    H     -9.01611274      2.64407792     -0.24785797
    H     -8.90456584      0.97237274     -0.87098722
    H     -8.30208655      2.33375312     -1.85841629
    O      1.28831417     -0.08380940     -3.36895726
    H      1.10237608     -0.83042747     -3.94661501
    H      1.03657165      0.67696278     -3.88708022
