51
Energy:    -43.32576765
    H      2.16664388     -2.22624880      3.13222930
    O      2.04112661     -1.81485247      4.04408975
    S      0.43530330     -1.49676024      4.19444879
    C      0.12964684     -0.63858547      2.64016915
    O      0.29470689     -0.55731098      5.31864794
    O     -0.32297443     -2.76482630      4.16130751
    C      0.75989786     -1.11380286      1.47644621
    C     -0.78656427      0.40441315      2.54253674
    N      1.72124810     -2.09650124      1.33287882
    C      0.45531549     -0.51238796      0.22828127
    H     -1.28420607      0.76077177      3.44782520
    C     -1.08662692      1.01024441      1.28509454
    C      2.02046678     -2.11727267      0.03062625
    N      1.28328515     -1.17022181     -0.66918509
    C     -0.49416298      0.50802357      0.10261126
    C     -2.01700893      2.16583272      1.23016749
    C      2.99408252     -3.01278421     -0.59298698
    H      1.29762984     -1.03961139     -1.67641503
    H     -0.74839334      0.94218361     -0.86875684
    C     -1.95435632      3.17926456      2.22947703
    C     -2.96245777      2.26019744      0.18757323
    C      3.44287970     -4.14192167      0.12303795
    C      3.49447444     -2.77222173     -1.89260986
    H     -1.21075249      3.08354366      3.02574071
    C     -2.80627343      4.28639118      2.22042724
    H     -3.04601917      1.46672824     -0.56166979
    C     -3.81253683      3.36915934      0.18902360
    H      3.05344053     -4.32419524      1.12924492
    C      4.37240473     -5.00727534     -0.46231941
    H      3.19017487     -1.87661524     -2.44568471
    C      4.43064009     -3.63386510     -2.48730186
    H     -2.74469137      5.05720948      2.99366704
    C     -3.75189622      4.38953455      1.18537653
    N     -4.83866822      3.77290555     -0.65419307
    H      4.71845224     -5.88388959      0.09308008
    C      4.85987255     -4.75944212     -1.75399848
    C      4.96753206     -3.36576416     -3.87460244
    N     -4.70665386      5.36996399      0.93828756
    H     -5.16709994      3.28420270     -1.48231572
    C     -5.33995933      4.97153937     -0.15728946
    H      5.58472509     -5.44762692     -2.20306805
    H      6.06618551     -3.26035888     -3.86230052
    H      4.72929235     -4.19695441     -4.56150972
    H      4.54524963     -2.44248180     -4.30167297
    C     -6.46823921      5.69226773     -0.81669915
    H     -6.68130213      6.60627222     -0.24545404
    H     -7.38391206      5.07550125     -0.84412801
    H     -6.21828034      5.97650202     -1.85450137
    O      1.05634347     -0.72241203     -3.37326835
    H      0.53170872     -1.29737681     -3.93884229
    H      1.19030637      0.06091491     -3.90152288
