51
Energy:    -43.32575363
    H      1.78269274      2.54934715      3.12797449
    O      1.40670209      2.34625396      4.04114216
    S      1.40278623      0.70905850      4.18958305
    C      0.61271671      0.24647655      2.63797644
    O      0.51228792      0.38973972      5.31706000
    O      2.79249518      0.20783011      4.15016038
    C      0.95361088      0.95747785      1.47368811
    C     -0.23581032     -0.85248224      2.54251723
    N      1.73331963      2.08947109      1.32826609
    C      0.41658963      0.54478331      0.22722215
    H     -0.48651358     -1.41025241      3.44818069
    C     -0.77807001     -1.26157600      1.28679961
    C      1.69104723      2.38866532      0.02652846
    N      0.89992386      1.48451451     -0.67111982
    C     -0.40350991     -0.58246564      0.10357527
    C     -1.73421012     -2.39606577      1.23444463
    C      2.38087012      3.51655936     -0.59858067
    H      0.76486298      1.47475927     -1.67781758
    H     -0.78489035     -0.91402231     -0.86663251
    C     -2.73677221     -2.52992864      2.23770879
    C     -1.64995164     -3.34084543      0.19037906
    C      3.40602421      4.17253736      0.11402999
    C      2.04357469      3.96312496     -1.89630674
    H     -2.78203576     -1.78270323      3.03504836
    C     -3.66019441     -3.57817626      2.23119951
    H     -0.85824577     -3.26994439     -0.56202765
    C     -2.57548428     -4.38765312      0.19438038
    H      3.66365221      3.82404756      1.11877955
    C      4.07485227      5.25133410     -0.47279503
    H      1.22060546      3.49351921     -2.44657311
    C      2.70745070      5.04773944     -2.49243934
    H     -4.42535987     -3.66633789      3.00747417
    C     -3.58448767     -4.52481756      1.19471037
    N     -2.77859880     -5.47113360     -0.64929345
    H      4.87119215      5.75827265      0.07994914
    C      3.73292955      5.68381261     -1.76257493
    C      2.33577516      5.52495614     -3.87766695
    N     -4.36483169     -5.64944378      0.94948380
    H     -2.23941801     -5.69886592     -1.47989989
    C     -3.85693883     -6.19338238     -0.14882519
    H      4.26764420      6.52762231     -2.21283977
    H      2.02187896      6.58304404     -3.86282913
    H      3.19439346      5.45119833     -4.56818226
    H      1.50876353      4.93410181     -4.30205465
    C     -4.35083714     -7.43806977     -0.80769070
    H     -5.20474157     -7.82298351     -0.23340015
    H     -3.57017721     -8.21857271     -0.83923803
    H     -4.68194190     -7.24597434     -1.84391991
    O      0.49283238      1.17917106     -3.37392173
    H      1.15534587      0.77508228     -3.94268190
    H     -0.30379891      1.16119638     -3.89895078
