51
Energy:    -41.91918365
    H      1.61724708      4.08479637     -0.42283358
    O      2.55571397      4.15469358     -0.06105289
    S      3.37968835      2.86006474     -0.65051145
    C      2.22924890      1.53406634     -0.24567527
    O      4.59830456      2.72888523      0.16430292
    O      3.45397657      2.95291775     -2.12358123
    C      0.85240567      1.76682916     -0.41127470
    C      2.66752757      0.26493895      0.12045106
    N      0.18745071      2.93717048     -0.72534170
    C     -0.06159445      0.70443434     -0.19148607
    H      3.73945899      0.08544238      0.23416128
    C      1.74402819     -0.80029876      0.34550105
    C     -1.11233688      2.62748840     -0.70356461
    N     -1.30469919      1.29079554     -0.37748652
    C      0.36104544     -0.58910741      0.13511347
    C      2.24407287     -2.12148471      0.80204788
    C     -2.20269337      3.56105844     -0.98344263
    H     -2.20088495      0.81314451     -0.35563310
    H     -0.34869757     -1.41077944      0.26854485
    C      3.28044637     -2.19310127      1.77692738
    C      1.69191565     -3.30576447      0.27064893
    C     -1.90932386      4.78684554     -1.61624773
    C     -3.53944320      3.26375347     -0.63416959
    H      3.68990552     -1.26020966      2.17467282
    C      3.78323721     -3.41151325      2.23979630
    H      0.92419902     -3.26144246     -0.50818849
    C      2.20375601     -4.51940967      0.73703695
    H     -0.87294990      5.01343473     -1.88443674
    C     -2.94286378      5.68778843     -1.89119166
    H     -3.77924812      2.33595607     -0.10286310
    C     -4.58348743      4.16377285     -0.90329919
    H      4.57786935     -3.45018558      2.99007438
    C      3.23933610     -4.59740766      1.71634905
    N      1.91209755     -5.84350334      0.43924123
    H     -2.71460270      6.63746984     -2.38380926
    C     -4.26616024      5.38038510     -1.54209188
    C     -6.00975061      3.84248060     -0.51953022
    N      3.54806106     -5.92434794      1.99523144
    H      1.21783085     -6.17406449     -0.22499373
    C      2.74721707     -6.63971567      1.21612624
    H     -5.06751552      6.09307868     -1.76697092
    H     -6.41909045      4.60591881      0.16450487
    H     -6.66546209      3.81805857     -1.40774361
    H     -6.08439553      2.86516616     -0.01708954
    C      2.71169537     -8.13001520      1.14519297
    H      3.45515329     -8.53172895      1.84734494
    H      2.95505036     -8.49467102      0.13157841
    H      1.71807395     -8.52682923      1.42006946
    O     -3.51607440     -0.26969662     -0.04852636
    H     -4.04825134     -0.92736804     -0.50673592
    H     -3.63648801     -0.47819022      0.87485383
