51
Energy:    -41.34403510
    H     -1.32560709      4.10407399     -0.93770162
    O     -1.92891597      4.48078497     -0.22314005
    S     -1.21347123      4.14065203      1.21731383
    C     -0.86709760      2.38621548      0.99901885
    O     -2.24367032      4.32032440      2.25296033
    O      0.08304577      4.84494565      1.30151103
    C     -0.41849007      1.94243183     -0.25760614
    C     -0.92862167      1.48594691      2.05852453
    N     -0.31337847      2.63259568     -1.45055518
    C     -0.04757281      0.58295307     -0.42077437
    H     -1.26451759      1.83892431      3.03666915
    C     -0.55908847      0.11740988      1.88887307
    C      0.11028161      1.73634636     -2.34669931
    N      0.27510097      0.48500112     -1.76614125
    C     -0.06130961     -0.32783479      0.64168447
    C     -0.70371632     -0.82838595      3.02402285
    C      0.37097907      2.01857839     -3.75777830
    H      0.64217671     -0.33789094     -2.23505602
    H      0.25970244     -1.36590609      0.51502257
    C     -1.84953676     -0.75908116      3.86775347
    C      0.29357358     -1.79614508      3.26617181
    C      0.49324589      3.35968631     -4.17675608
    C      0.50172137      0.98079287     -4.70814121
    H     -2.60926010     -0.00106686      3.65708842
    C     -2.03227271     -1.62739437      4.94674084
    H      1.19679512     -1.83123409      2.64900035
    C      0.10373376     -2.65770532      4.34973436
    H      0.39071011      4.16023046     -3.43786875
    C      0.74424405      3.64337825     -5.52286745
    H      0.36614981     -0.06435153     -4.40831702
    C      0.75050978      1.25616905     -6.06267666
    H     -2.91836847     -1.56295677      5.58434189
    C     -1.04395911     -2.59547565      5.19619200
    N      0.86091235     -3.69665526      4.87340851
    H      0.84085597      4.68384231     -5.84655041
    C      0.87464417      2.60466509     -6.45643683
    C      0.88111958      0.14127346     -7.07494288
    N     -0.97333144     -3.56952161      6.18619363
    H      1.75507842     -4.02831037      4.52275636
    C      0.17259346     -4.20257030      5.97122273
    H      1.07558945      2.84018923     -7.50754214
    H      0.13153069      0.24402485     -7.87859681
    H      1.87532676      0.15386819     -7.55543269
    H      0.74286800     -0.84744902     -6.60967267
    C      0.70509901     -5.33236749      6.78809613
    H     -0.01171752     -5.55194740      7.59126468
    H      1.67747628     -5.07957668      7.24656014
    H      0.84241062     -6.24452048      6.18029316
    O      1.26400856     -1.96461945     -2.91897508
    H      2.14328308     -2.07102164     -3.29481400
    H      0.88913693     -2.84131586     -2.95737626
