51
Energy:    -43.32607658
    H      2.66521046     -1.22441176      3.29527771
    O      2.36239523     -0.85573462      4.18346188
    S      0.74186169     -1.11854024      4.26868653
    C      0.22556845     -0.47086870      2.66879971
    O      0.23032650     -0.25463639      5.34486397
    O      0.47824797     -2.57270068      4.26820065
    C      1.03432922     -0.72938545      1.54791876
    C     -0.99257129      0.17955154      2.49585434
    N      2.28448397     -1.31490429      1.47876115
    C      0.59514816     -0.31216366      0.26517483
    H     -1.62393767      0.36560460      3.36817696
    C     -1.42865159      0.60221091      1.20379280
    C      2.63060632     -1.26898285      0.18883264
    N      1.64081354     -0.66379769     -0.57545733
    C     -0.64493193      0.30456044      0.06419038
    C     -2.70142706      1.35428821      1.06801973
    C      3.88340848     -1.78333575     -0.36315454
    H      1.65404421     -0.56743798     -1.58655414
    H     -0.99093223      0.59150883     -0.93312021
    C     -3.04308772      2.35509086      2.02261443
    C     -3.57180693      1.07795106     -0.00708849
    C      4.66647224     -2.65984364      0.41633700
    C      4.32605446     -1.42205891     -1.65575872
    H     -2.34991853      2.55158796      2.84544513
    C     -4.22755429      3.09084400      1.93728993
    H     -3.33808595      0.28324544     -0.72246145
    C     -4.75567203      1.81638984     -0.08195232
    H      4.32047859     -2.93654520      1.41686868
    C      5.86572968     -3.16032263     -0.10018923
    H      3.75261791     -0.70819466     -2.25756380
    C      5.53064678     -1.91701639     -2.18156138
    H     -4.47498731      3.85736077      2.67693980
    C     -5.10151384      2.82288982      0.86931696
    N     -5.81894633      1.80722048     -0.97432819
    H      6.47146321     -3.84165834      0.50440861
    C      6.29337813     -2.79654740     -1.38559399
    C      6.00175806     -1.51982141     -3.56178756
    N     -6.32703134      3.39662844      0.54871152
    H     -5.91751494      1.20906451     -1.78979043
    C     -6.73034531      2.76746313     -0.54746176
    H      7.23292144     -3.19911074     -1.78040296
    H      6.99208833     -1.03427127     -3.51950258
    H      6.10116930     -2.40232945     -4.21812130
    H      5.30254847     -0.81771393     -4.04273769
    C     -8.00855437      3.02454226     -1.27366967
    H     -8.55395124      3.82219086     -0.75077392
    H     -8.64785955      2.12450375     -1.30247195
    H     -7.82734079      3.34658887     -2.31470263
    O      1.39395284     -0.40761925     -3.30263823
    H      1.13011868     -1.14747552     -3.85824982
    H      1.26877990      0.35614222     -3.86084980
