51
Energy:    -43.32605711
    H     -3.05522529     -0.88651171      3.05632043
    O     -2.65394760     -0.97842594      3.97665678
    S     -1.61901744      0.28533905      4.16179626
    C     -0.68343373      0.16347382      2.62703016
    O     -0.75003030     -0.04460317      5.30291653
    O     -2.37789548      1.55288585      4.12301197
    C     -1.37353021     -0.15706091      1.44452294
    C      0.67042967      0.47928852      2.56271854
    N     -2.69012642     -0.53896065      1.26780566
    C     -0.67162886     -0.16137182      0.21176103
    H      1.19900091      0.74141539      3.48254893
    C      1.37429866      0.46899195      1.32066684
    C     -2.82034636     -0.78110913     -0.03995268
    N     -1.62198783     -0.57233076     -0.71109084
    C      0.67866273      0.19468573      0.11968693
    C      2.83311470      0.74373466      1.30106578
    C     -4.05508503     -1.21065921     -0.69544421
    H     -1.49097175     -0.63755786     -1.71625611
    H      1.20316247      0.22248774     -0.83990208
    C      3.67417723      0.20083729      2.31470539
    C      3.38602575      1.54189985      0.27783428
    C     -5.27815827     -1.07940500     -0.00557018
    C     -4.05000842     -1.75357187     -2.00024384
    H      3.22089261     -0.41655655      3.09541207
    C      5.05221392      0.42889551      2.33875357
    H      2.74305486      1.99707754     -0.48199643
    C      4.76457585      1.76737633      0.31237393
    H     -5.27762988     -0.65916307      1.00474434
    C     -6.46636853     -1.48468322     -0.62152713
    H     -3.10462104     -1.90336110     -2.53354195
    C     -5.23787310     -2.16637109     -2.62559839
    H      5.68505692      0.00357136      3.12262991
    C      5.61277384      1.22299969      1.32320341
    N      5.62373918      2.48873152     -0.50521768
    H     -7.41477626     -1.38068132     -0.08638569
    C     -6.44896265     -2.01971046     -1.91803162
    C     -5.22378135     -2.75366855     -4.01829977
    N      6.93305512      1.60369121      1.10922136
    H      5.36671882      3.01650755     -1.33460179
    C      6.90552590      2.35995924      0.01953893
    H     -7.38749323     -2.32950077     -2.39117359
    H     -5.64975135     -3.77190643     -4.02479444
    H     -5.82838813     -2.14490647     -4.71352374
    H     -4.20115019     -2.81367886     -4.42300493
    C      8.08812296      3.01997524     -0.60746115
    H      8.98134232      2.77091965     -0.01818067
    H      7.97740036      4.11858826     -0.62745963
    H      8.24400151      2.67479956     -1.64517866
    O     -1.05929342     -0.55938639     -3.40316983
    H     -1.30564217      0.17964806     -3.96782935
    H     -0.42022200     -1.04263822     -3.92148960
