51
Energy:    -43.32603592
    H      0.07852681      3.05396061      3.18253810
    O     -0.04767371      2.64991740      4.09758647
    S      0.93779329      1.33592498      4.16641749
    C      0.49403600      0.51885024      2.62332211
    O      0.48244430      0.52634053      5.30807695
    O      2.34589015      1.77011784      4.05321498
    C      0.27368407      1.31231560      1.48351654
    C      0.46843775     -0.86756485      2.50492059
    N      0.21064126      2.68803604      1.36552985
    C      0.01982690      0.68171256      0.23841319
    H      0.65421792     -1.47985307      3.39079579
    C      0.20770657     -1.49827205      1.25094384
    C     -0.07725760      2.92460993      0.08218576
    N     -0.20831269      1.73893028     -0.62990014
    C      0.03225141     -0.70976477      0.08948882
    C      0.11988268     -2.97845145      1.17767791
    C     -0.23730850      4.25146635     -0.51161364
    H     -0.36840198      1.66762443     -1.63043194
    H     -0.12990222     -1.18688074     -0.88146460
    C     -0.54317587     -3.70485698      2.20834633
    C      0.69258256     -3.66505928      0.08663917
    C      0.23014987      5.37894710      0.19502052
    C     -0.84890713      4.42869529     -1.77328674
    H     -0.98068213     -3.14849077      3.04212682
    C     -0.65384238     -5.09723894      2.18386385
    H      1.23932176     -3.11995669     -0.68917034
    C      0.57997368     -5.05774034      0.07279331
    H      0.70250253      5.23742501      1.17184879
    C      0.08492139      6.65327491     -0.36219964
    H     -1.25703448      3.56877369     -2.31602785
    C     -1.00211112      5.70486444     -2.33933871
    H     -1.16766877     -5.64062646      2.98171436
    C     -0.08642398     -5.79060132      1.10060212
    N      1.01764953     -6.03126326     -0.81471105
    H      0.44956785      7.52701723      0.18577601
    C     -0.52148365      6.81632366     -1.61646000
    C     -1.66456934      5.88748945     -3.68564151
    N     -0.05081331     -7.15399311      0.82902946
    H      1.53688775     -5.87516949     -1.67407791
    C      0.61728222     -7.26483749     -0.31178993
    H     -0.62532815      7.81986817     -2.04399683
    H     -2.54788754      6.54480602     -3.60827938
    H     -0.97420826      6.35601584     -4.40907886
    H     -1.99609102      4.92599707     -4.10847454
    C      0.92978314     -8.54504619     -1.01228609
    H      0.51105484     -9.37545322     -0.42729740
    H      2.01890130     -8.69991480     -1.10948351
    H      0.49052994     -8.57213223     -2.02551112
    O     -0.50658980      1.29758193     -3.32811564
    H      0.23182853      1.38211563     -3.93909225
    H     -1.16260237      0.81416526     -3.82465952
