51
Energy:    -43.32601060
    H     -2.38597839      1.97975780      3.13831838
    O     -2.22781531      1.57261786      4.04700562
    S     -0.60010612      1.40567973      4.20560400
    C     -0.20541258      0.59621719      2.64526353
    O     -0.37844981      0.47209055      5.32159492
    O      0.03544179      2.73981405      4.19012911
    C     -0.87052862      1.02194452      1.48178775
    C      0.80562213     -0.35476750      2.54398202
    N     -1.91934127      1.91113965      1.34098275
    C     -0.50298095      0.46482292      0.23002491
    H      1.32909727     -0.67199378      3.44925947
    C      1.16914334     -0.91661555      1.28286779
    C     -2.21121751      1.91708207      0.03691299
    N     -1.38377476      1.05096841     -0.66683670
    C      0.53921446     -0.46025280      0.10116197
    C      2.20463834     -1.97878938      1.22329561
    C     -3.26108648      2.72328615     -0.58483626
    H     -1.37958402      0.92999914     -1.67536328
    H      0.83917565     -0.85847499     -0.87255584
    C      2.23169261     -3.00388502      2.21225264
    C      3.16112958     -1.97289399      0.18653587
    C     -3.81869903      3.79766650      0.13892968
    C     -3.72861626      2.45009228     -1.89023390
    H      1.47752200     -2.98687107      3.00413787
    C      3.18422460     -4.02568092      2.19847087
    H      3.17409762     -1.16738446     -0.55436037
    C      4.11194055     -2.99679853      0.18322271
    H     -3.45433682      4.00541254      1.14958331
    C     -4.82206537      4.57760680     -0.44454790
    H     -3.33786654      1.59289627     -2.44981468
    C     -4.73818669      3.22580982     -2.48312836
    H      3.19085557     -4.80681883      2.96373723
    C      4.14167045     -4.02858621      1.16917014
    N      5.17670003     -3.29335109     -0.65660753
    H     -5.25260013      5.41193919      0.11687821
    C     -5.27609201      4.29831036     -1.74198164
    C     -5.23892113      2.92266868     -3.87672245
    N      5.18609470     -4.91210820      0.91932240
    H      5.46265607     -2.76735357     -1.47760738
    C      5.78570694     -4.44449934     -0.16783633
    H     -6.05983270      4.91975238     -2.18945605
    H     -6.32279982      2.71411271     -3.87320185
    H     -5.07590366      3.77965693     -4.55382912
    H     -4.72887760      2.04773425     -4.30974362
    C      6.98091630     -5.04888329     -0.82622880
    H      7.27569730     -5.94460356     -0.26239341
    H      7.83451888     -4.34834892     -0.84120303
    H      6.76521570     -5.34466510     -1.86848039
    O     -1.09906230      0.65457658     -3.37348040
    H     -0.62749798      1.28228891     -3.92963174
    H     -1.15533797     -0.13231817     -3.91035070
