51
Energy:    -43.32598625
    H     -0.03671024     -2.99058852      3.24289990
    O      0.20207685     -2.58469759      4.13437300
    S     -0.66608278     -1.19443804      4.26061188
    C     -0.29809331     -0.43865357      2.66717265
    O     -0.04817503     -0.40767567      5.34012611
    O     -2.10863476     -1.51493581      4.28061127
    C     -0.24367475     -1.26397459      1.52999068
    C     -0.17332323      0.93926272      2.51683922
    N     -0.30063183     -2.64186904      1.43690596
    C     -0.05248436     -0.67430076      0.25401380
    H     -0.23038304      1.57749888      3.40204246
    C      0.02391049      1.52835424      1.23142098
    C     -0.14778382     -2.91975176      0.13873660
    N      0.01292877     -1.75912916     -0.60772483
    C      0.03221809      0.71128818      0.07650105
    C      0.22191292      2.99534680      1.11855004
    C     -0.14690911     -4.26377281     -0.43777761
    H      0.08845920     -1.71568851     -1.61974511
    H      0.14459797      1.15943257     -0.91507415
    C      1.02957549      3.68078425      2.07114947
    C     -0.38940646      3.70994731      0.06716252
    C     -0.63749880     -5.33926527      0.33144260
    C      0.33396408     -4.50837422     -1.74399854
    H      1.49408705      3.10314552      2.87533074
    C      1.24764120      5.05914455      2.00677375
    H     -1.04451982      3.19952970     -0.64574796
    C     -0.16844163      5.08860461      0.01320346
    H     -1.00830661     -5.14569017      1.34256536
    C     -0.64392078     -6.62920009     -0.20848695
    H      0.75902769     -3.69233280     -2.33897613
    C      0.33452857     -5.80091874     -2.29338213
    H      1.87190260      5.57083816      2.74455445
    C      0.64279338      5.78016366      0.96252208
    N     -0.60483810      6.08121405     -0.85354657
    H     -1.02644301     -7.46245539      0.38819751
    C     -0.16642025     -6.85914051     -1.50717924
    C      0.85793710     -6.05625283     -3.68822334
    N      0.69133033      7.13783836      0.66550263
    H     -1.20925008      5.95503895     -1.66054781
    C     -0.06477428      7.28560919     -0.41457913
    H     -0.18092272     -7.87395903     -1.92022408
    H      1.68974229     -6.78165261     -3.67421299
    H      0.07095794     -6.47796909     -4.33806655
    H      1.22566673     -5.13102969     -4.15928498
    C     -0.33593079      8.57648555     -1.11271835
    H      0.19771176      9.37879659     -0.58485130
    H     -1.41366122      8.81749176     -1.11752851
    H      0.01213821      8.55309120     -2.16086084
    O      0.10371280     -1.38302020     -3.33066526
    H     -0.69061446     -1.41664846     -3.87252625
    H      0.74901375     -0.96152183     -3.89327153
