51
Energy:    -43.32597400
    H      2.88259142      0.92301182      3.20937617
    O      2.43335268      1.00957328      4.10780962
    S      1.40599240     -0.26698222      4.23970306
    C      0.54923364     -0.15607702      2.65877312
    O      0.47538518      0.05170847      5.33449183
    O      2.18149945     -1.52502174      4.24033143
    C      1.29527680      0.17346187      1.51329387
    C     -0.79550789     -0.48860048      2.52490982
    N      2.61439504      0.57170305      1.40451417
    C      0.65777882      0.16959037      0.24602620
    H     -1.36745118     -0.75762851      3.41636414
    C     -1.43456656     -0.48650732      1.24826201
    C      2.80876683      0.81598250      0.10514041
    N      1.64923048      0.59266159     -0.62676206
    C     -0.68146813     -0.20311722      0.08463028
    C     -2.88692413     -0.77927952      1.15363676
    C      4.07020321      1.26105385     -0.48600403
    H      1.56934397      0.65667502     -1.63735467
    H     -1.15548075     -0.23701542     -0.90068538
    C     -3.78571942     -0.24725193      2.12250346
    C     -3.37649144     -1.58380735      0.10347496
    C      5.25766580      1.14466651      0.26595913
    C      4.12559139      1.80439837     -1.78945748
    H     -3.38091312      0.37538482      2.92537352
    C     -5.16023650     -0.49236121      2.07561818
    H     -2.68966414     -2.03067848     -0.62213888
    C     -4.75209336     -1.82634574      0.06704021
    H      5.21032368      0.72403498      1.27500166
    C      6.47090408      1.56487564     -0.28809335
    H      3.20713378      1.94269241     -2.37075893
    C      5.33887530      2.23212751     -2.35291460
    H     -5.83781848     -0.07522584      2.82577399
    C     -5.65788774     -1.29292618      1.03273277
    N     -5.55902233     -2.55794508     -0.79354043
    H      7.39171588      1.47240205      0.29519412
    C      6.51365085      2.10017931     -1.58389569
    C      5.38923719      2.81977796     -3.74462744
    N     -6.96058469     -1.68984425      0.75114138
    H     -5.25312383     -3.08215806     -1.60847102
    C     -6.86762363     -2.44526556     -0.33550662
    H      7.47138910      2.42175838     -2.00815664
    H      5.80233433      3.84321346     -3.72941189
    H      6.03632972      2.21883275     -4.40766071
    H      4.38813505      2.86729091     -4.20146334
    C     -8.00810518     -3.11961252     -1.02241563
    H     -8.93349606     -2.88187539     -0.47996400
    H     -7.88290337     -4.21676242     -1.03643737
    H     -8.11461004     -2.77596638     -2.06686096
    O      1.22615928      0.57381174     -3.34425536
    H      1.51042619     -0.16192941     -3.89523385
    H      0.60877043      1.04931658     -3.89500590
