51
Energy:    -43.32595945
    H     -0.26804317      3.09233265      3.13480659
    O     -0.44343245      2.69449683      4.04445282
    S      0.58505576      1.42180129      4.20230422
    C      0.28481612      0.56935065      2.64382449
    O      0.08122801      0.60833555      5.32060073
    O      1.97964971      1.91047662      4.18283333
    C      0.11567869      1.33976138      1.47971159
    C      0.32178504     -0.81829258      2.54432292
    N      0.00766196      2.71036659      1.33731873
    C     -0.02383918      0.68474864      0.22916008
    H      0.46754066     -1.41208663      3.45005463
    C      0.17605374     -1.47378942      1.28443551
    C     -0.19684599      2.91996400      0.03345124
    N     -0.23040618      1.72160425     -0.66860689
    C      0.05340363     -0.70679807      0.10198584
    C      0.15143358     -2.95706208      1.22691963
    C     -0.36566292      4.23221046     -0.58966357
    H     -0.31572895      1.63205799     -1.67681247
    H     -0.02027539     -1.20153249     -0.87089301
    C     -0.55472958     -3.69703367      2.21856707
    C      0.82691188     -3.63320304      0.18944989
    C      0.00584260      5.38578514      0.13166236
    C     -0.89203270      4.36985129     -1.89399169
    H     -1.07201399     -3.14868759      3.01095487
    C     -0.60902201     -5.09291610      2.20679509
    H      1.40600456     -3.07598588     -0.55358557
    C      0.76993552     -5.02933520      0.18815332
    H      0.41237997      5.27487061      1.14149618
    C     -0.14876656      6.64657575     -0.45314535
    H     -1.22653531      3.48792311     -2.45158625
    C     -1.05403192      5.63205813     -2.48820054
    H     -1.15695197     -5.64684348      2.97412175
    C      0.06090010     -5.77592398      1.17680693
    N      1.30748173     -5.99510877     -0.65166600
    H      0.14148690      7.54063935      0.10638411
    C     -0.66993679      6.77034427     -1.74950330
    C     -1.62525877      5.77205262     -3.88062125
    N      0.16891720     -7.13994422      0.92853672
    H      1.88029118     -5.82865536     -1.47426407
    C      0.92059371     -7.23760621     -0.16029365
    H     -0.78200909      7.76378248     -2.19804907
    H     -2.53678829      6.39446026     -3.87575721
    H     -0.90377668      6.25911653     -4.56011322
    H     -1.88801536      4.79312727     -4.31169680
    C      1.33197499     -8.51256953     -0.81795615
    H      0.90521493     -9.35200554     -0.25196672
    H      2.43045933     -8.62498655     -0.83540814
    H      0.96759714     -8.56922888     -1.85926326
    O     -0.31770119      1.23662960     -3.37438990
    H      0.45866755      1.34333918     -3.93256965
    H     -0.91716176      0.72153278     -3.90910691
