60
Energy:    -52.91070969
    H      0.61701190     -2.18327228     -6.29133307
    C      0.21955565     -1.34551375     -5.70879108
    C      0.13761902     -1.44989636     -4.31436766
    C     -0.20381819     -0.18045739     -6.36239973
    H      0.47540437     -2.37469539     -3.83506629
    C     -0.37475193     -0.37618688     -3.55605377
    H     -0.13498284     -0.11417918     -7.45313842
    C     -0.72032565      0.90766667     -5.62506461
    C     -0.48382818     -0.42616600     -2.09401599
    C     -0.79799252      0.79241717     -4.22722363
    C     -1.17455525      2.16468043     -6.33162379
    N     -1.03631943      0.52222401     -1.34053886
    N     -0.01087623     -1.49184024     -1.33322898
    H     -1.19131226      1.61576112     -3.62370286
    H     -0.33173516      2.65493796     -6.85160058
    H     -1.93822620      1.93815450     -7.09560263
    H     -1.60315853      2.89021855     -5.62399206
    C     -0.92263710      0.06746494     -0.03528697
    H      0.47806259     -2.30998927     -1.68271431
    C     -0.27687464     -1.20632071     -0.00407871
    C     -1.33735046      0.67340677      1.16306036
    C     -0.03331444     -1.89420582      1.19293738
    H     -1.83031690      1.64880780      1.13685089
    C     -1.05688980      0.02966449      2.38294056
    H      0.46290983     -2.86850907      1.21330037
    C     -0.45798766     -1.27422426      2.37229294
    C     -1.37758196      0.69235852      3.67529428
    H     -0.33000740     -1.80333869      3.32142568
    C     -0.47760653      0.59784858      4.77616489
    C     -2.57772472      1.42091294      3.81382521
    H      0.44716923      0.02860066      4.64375419
    C     -0.71009447      1.24735194      5.99186994
    H     -3.29476592      1.46641916      2.98870576
    C     -2.80356614      2.06705410      5.03277362
    H     -0.00755495      1.16397794      6.82471806
    C     -1.87803872      2.01982917      6.11981585
    N     -3.85090166      2.84808290      5.50422704
    N     -2.32920666      2.79727164      7.18278372
    H     -4.69370176      3.09610573      4.99444507
    C     -3.53388959      3.23073180      6.80241508
    C     -4.47079672      4.03755735      7.64162398
    H     -4.00110817      4.21130567      8.61911832
    H     -5.42918335      3.51208395      7.80016030
    H     -4.69041416      5.01551676      7.17845709
    C      4.86005955     -0.99536370     -1.09519870
    C      3.85866989     -2.13421026     -0.96584932
    O      3.00422849     -1.84835106      0.14870549
    C      3.01156760     -2.35316440     -2.23874789
    C      3.83326618     -2.76176205     -3.45193930
    O      2.03072691     -3.37206823     -2.00034586
    H      5.35947067     -0.81910124     -0.13653136
    H      4.35628980     -0.06192858     -1.36586439
    H      5.62549142     -1.21609972     -1.84304071
    H      4.38889021     -3.05740828     -0.70620948
    H      2.23574278     -1.35197986     -0.18319411
    H      2.44850336     -1.44204058     -2.47066607
    H      4.42085139     -3.66197315     -3.24003698
    H      4.51263592     -1.96457182     -3.76387599
    H      3.17601514     -3.00515607     -4.29389798
    H      2.41325435     -4.01443896     -1.37644395
