60
Energy:    -52.91069189
    H     -0.69384259     -1.64949060     -6.44406786
    C     -0.56503409     -0.78100376     -5.78961772
    C     -0.68844973     -0.93552060     -4.40292412
    C     -0.28028288      0.47397558     -6.34436955
    H     -0.91311005     -1.92945434     -4.00204327
    C     -0.52582761      0.17825528     -3.55235177
    H     -0.18822117      0.57943917     -7.43029960
    C     -0.11323896      1.60371487     -5.51356123
    C     -0.64193850      0.07846410     -2.09341038
    C     -0.23904704      1.43753278     -4.12437808
    C      0.19612558      2.95645763     -6.11357341
    N     -0.58166626      1.11017590     -1.25415116
    N     -0.83050236     -1.12948381     -1.42749183
    H     -0.11466034      2.29005620     -3.45016390
    H      1.16883128      2.94563918     -6.63778766
    H     -0.56781046      3.24717254     -6.85523207
    H      0.23749784      3.73841181     -5.34047251
    C     -0.73412646      0.56389969      0.01145154
    H     -0.87168788     -2.05047459     -1.85251976
    C     -0.89377508     -0.85318739     -0.07155162
    C     -0.74597621      1.19906438      1.26509199
    C     -1.06587684     -1.65602991      1.06474934
    H     -0.62245389      2.28354976      1.32627770
    C     -0.86296081      0.41096444      2.42542948
    H     -1.18608357     -2.74091212      0.99766029
    C     -1.07837419     -1.00218784      2.30084738
    C     -0.76490878      1.03438776      3.77224579
    H     -1.26031914     -1.58953267      3.20589770
    C     -0.06275331      0.37447391      4.82214836
    C     -1.36767944      2.28689328      4.01353908
    H      0.39735671     -0.59512741      4.61011526
    C      0.10164352      0.94482191      6.08766045
    H     -1.94338081      2.78365821      3.22687935
    C     -1.19956823      2.85054190      5.28175706
    H      0.64444561      0.42382044      6.88017062
    C     -0.45011757      2.21715545      6.31985017
    N     -1.64524689      4.03631956      5.85139544
    N     -0.39849836      3.02606021      7.45160922
    H     -2.21431790      4.74520361      5.39824360
    C     -1.16797897      4.07702129      7.15629685
    C     -1.50657325      5.19422662      8.08916349
    H     -1.01695327      5.00319355      9.05356467
    H     -2.59581872      5.26807260      8.25605293
    H     -1.15393514      6.16649025      7.70249852
    C      3.51347931     -3.40032224     -1.37973978
    C      2.05145188     -3.81160742     -1.28072303
    O      1.49619851     -3.19574631     -0.11178043
    C      1.22107718     -3.42791388     -2.52533186
    C      1.68140357     -4.12016542     -3.79924764
    O     -0.15773179     -3.75930506     -2.31058854
    H      4.02928805     -3.60400728     -0.43529457
    H      3.60451533     -2.32518619     -1.56450968
    H      4.03072473     -3.94277911     -2.17477167
    H      1.98812457     -4.89179928     -1.10747120
    H      1.12590555     -2.33495631     -0.37452687
    H      1.25037218     -2.34204403     -2.67025416
    H      1.67856023     -5.20874780     -3.67467114
    H      2.68638881     -3.80260352     -4.08824436
    H      0.99701575     -3.89544867     -4.62461404
    H     -0.18967772     -4.55407630     -1.74885984
