60
Energy:    -52.81581257
    H      0.12878888     -1.94519104     -6.39710897
    C     -0.14365674     -1.09397142     -5.76436532
    C     -0.18928211     -1.25270550     -4.37341319
    C     -0.44493775      0.14257791     -6.35086468
    H      0.05020507     -2.23261721     -3.94738393
    C     -0.54100450     -0.16193354     -3.55065934
    H     -0.40640857      0.25093032     -7.43972521
    C     -0.79974162      1.24911831     -5.54828162
    C     -0.60460864     -0.26661977     -2.08882990
    C     -0.84233144      1.07893701     -4.15454620
    C     -1.12230931      2.58302497     -6.18253481
    N     -1.01150349      0.70489721     -1.27457605
    N     -0.23837351     -1.41554057     -1.39313254
    H     -1.11169559      1.91438820     -3.50163175
    H     -0.24476098      2.99261026     -6.71472163
    H     -1.93383532      2.48538560     -6.92419720
    H     -1.43493415      3.32084798     -5.42839165
    C     -0.90867541      0.17943710      0.00477146
    H      0.13527888     -2.26912788     -1.79604890
    C     -0.42154384     -1.16253165     -0.04355775
    C     -1.20502731      0.77411035      1.24320930
    C     -0.22191233     -1.92968234      1.11272166
    H     -1.57661449      1.80164774      1.27784845
    C     -0.96264204      0.04525496      2.42269614
    H      0.15283724     -2.95624829      1.07216174
    C     -0.52709914     -1.31900820      2.33318965
    C     -1.15558079      0.68057565      3.75360833
    H     -0.43144975     -1.90331327      3.25331615
    C     -0.23611729      0.42781756      4.81261929
    C     -2.25293335      1.54025512      3.97061890
    H      0.60761033     -0.24120759      4.61944822
    C     -0.34581342      1.04307569      6.06292653
    H     -2.98731487      1.70966592      3.17750810
    C     -2.35633163      2.15123230      5.22375644
    H      0.36985561      0.83748572      6.86273876
    C     -1.40626239      1.94295468      6.26993083
    N     -3.28419469      3.02914153      5.76922094
    N     -1.72266034      2.71838334      7.38189878
    H     -4.10783076      3.39973705      5.30447629
    C     -2.87830264      3.31015169      7.06864156
    C     -3.68074610      4.18328111      7.97790694
    H     -3.15985728      4.25380404      8.94226805
    H     -4.68973513      3.76945491      8.15240624
    H     -3.79600075      5.20101972      7.56549394
    C      3.34925970     -3.04246648     -3.71207032
    C      2.62510478     -2.58965820     -2.45228925
    O      1.53593105     -3.49149096     -2.21901633
    C      3.53830374     -2.53072803     -1.20794649
    C      4.66742458     -1.51883496     -1.33096084
    O      2.76123449     -2.19380766     -0.05049367
    H      2.63748493     -3.16336304     -4.53565012
    H      3.82514990     -4.01644301     -3.55961298
    H      4.10869056     -2.32010843     -4.02084469
    H      2.16825917     -1.60914169     -2.62756176
    H      1.85933088     -4.20936943     -1.64702416
    H      3.95891729     -3.52301722     -1.00940078
    H      4.27391241     -0.51951566     -1.54786664
    H      5.37209131     -1.79712291     -2.11859058
    H      5.21692888     -1.44313724     -0.38627630
    H      2.04142978     -1.60330076     -0.33580715
