60
Energy:    -52.81579839
    H      1.59841366     -0.46497468     -6.47705316
    C      0.73811980     -0.50344457     -5.80060617
    C      0.94829684     -0.56662326     -4.41718285
    C     -0.56168966     -0.49079895     -6.32419136
    H      1.97662303     -0.57652203     -4.04097909
    C     -0.15417354     -0.61825732     -3.53837173
    H     -0.71013698     -0.44264706     -7.40792877
    C     -1.68116639     -0.54172900     -5.46475260
    C      0.00271496     -0.68406988     -2.08131830
    C     -1.45902425     -0.60482653     -4.07913159
    C     -3.08277757     -0.52575716     -6.03120209
    N     -0.99882858     -0.81938770     -1.21470557
    N      1.23957163     -0.61004498     -1.44661531
    H     -2.30231177     -0.64400043     -3.38331224
    H     -3.28349618      0.41869670     -6.56859667
    H     -3.22941754     -1.34674238     -6.75414813
    H     -3.83765054     -0.62995109     -5.23737628
    C     -0.40227882     -0.83348493      0.03722959
    H      2.13895037     -0.47078349     -1.89638538
    C      1.01511078     -0.70268299     -0.08281454
    C     -0.99093149     -0.95081311      1.30802113
    C      1.86360805     -0.68618635      1.03304173
    H     -2.07597970     -1.04964276      1.39753697
    C     -0.16752664     -0.88291428      2.44756674
    H      2.94822410     -0.58414173      0.93756962
    C      1.25638185     -0.80828361      2.28682504
    C     -0.76485179     -0.88851565      3.80968138
    H      1.89036102     -0.84967743      3.17763982
    C     -0.23678060     -0.04699033      4.83133687
    C     -1.86170145     -1.72910684      4.09367483
    H      0.61303753      0.59688520      4.58634819
    C     -0.79768555      0.02162742      6.10982083
    H     -2.24950789     -2.40865587      3.32891325
    C     -2.41674234     -1.65543766      5.37462778
    H     -0.37930257      0.67401982      6.88020311
    C     -1.92457310     -0.77324320      6.38457550
    N     -3.47235733     -2.32247419      5.98284259
    N     -2.69917843     -0.86613165      7.53749715
    H     -4.06098462     -3.03244838      5.55721416
    C     -3.57782799     -1.83897687      7.28180959
    C     -4.57934664     -2.38037532      8.24973631
    H     -4.46884447     -1.84400826      9.20178181
    H     -4.42522427     -3.45848198      8.43329376
    H     -5.61224098     -2.24052288      7.88541425
    C      3.60261318      2.41329202     -3.93075490
    C      3.04425403      1.84656093     -2.63324385
    O      3.65267599      0.56825943     -2.41011608
    C      3.27861242      2.76373573     -1.41272736
    C      2.57930586      4.11021231     -1.52202128
    O      2.81388987      2.11493158     -0.22103314
    H      3.49957734      1.68166627     -4.73922900
    H      4.67137785      2.62941288     -3.83391030
    H      3.08080364      3.32605241     -4.22817930
    H      1.97285054      1.65017094     -2.75310430
    H      4.45608012      0.70807160     -1.87897921
    H      4.35340104      2.92245160     -1.26915611
    H      1.50365469      3.97921253     -1.68435618
    H      2.98726048      4.70944044     -2.33985908
    H      2.69105634      4.67527065     -0.59017639
    H      2.04771262      1.56378636     -0.46068367
