60
Energy:    -52.81578015
    H      1.29562548     -2.46471139     -6.08029074
    C      0.77334550     -1.64158478     -5.58143987
    C      0.60027606     -1.67338796     -4.19181347
    C      0.28284364     -0.56766680     -6.33636642
    H      0.99423476     -2.52794242     -3.63179988
    C     -0.07291046     -0.61807103     -3.54101234
    H      0.42448998     -0.55754603     -7.42203483
    C     -0.39437194      0.50030961     -5.70766743
    C     -0.28340210     -0.59484231     -2.08942573
    C     -0.56235133      0.45836897     -4.31364522
    C     -0.92094819      1.65918438     -6.52336390
    N     -0.98329405      0.33153898     -1.43797584
    N      0.23831067     -1.55866125     -1.23093238
    H     -1.08060224      1.26883609     -3.79269222
    H     -0.09645231      2.20518982     -7.01647503
    H     -1.59945496      1.30924778     -7.32044856
    H     -1.47190378      2.37483082     -5.89475663
    C     -0.92011405     -0.03248770     -0.10122423
    H      0.83224327     -2.33916836     -1.49288985
    C     -0.15222040     -1.22669544      0.05600243
    C     -1.48116220      0.59423954      1.02466517
    C      0.07146466     -1.81462286      1.30886369
    H     -2.06749285      1.50873211      0.90206952
    C     -1.22703558      0.05536415      2.29989180
    H      0.66134511     -2.72801783      1.42578534
    C     -0.49949771     -1.17611090      2.41426337
    C     -1.70747873      0.75382348      3.52198589
    H     -0.38842184     -1.63299280      3.40224873
    C     -0.88583825      0.81897175      4.68451186
    C     -2.98239809      1.35781342      3.53207293
    H      0.09924050      0.34428335      4.65169759
    C     -1.27180407      1.50926285      5.83706233
    H     -3.63781478      1.27933337      2.65954164
    C     -3.36166617      2.04565880      4.68851682
    H     -0.62749155      1.54906082      6.71878026
    C     -2.51846814      2.15965687      5.83591105
    N     -4.51476757      2.73715962      5.03689845
    N     -3.12318065      2.94495009      6.81341160
    H     -5.33869807      2.86458777      4.45672124
    C     -4.33449498      3.22556541      6.32576252
    C     -5.40766776      3.97561271      7.04601473
    H     -5.03113389      4.25431749      8.03941137
    H     -6.31669580      3.36153039      7.17381113
    H     -5.69098200      4.89639795      6.50652646
    C      4.33942184     -2.53942277     -2.99571452
    C      3.39186510     -2.14552564     -1.87167480
    O      2.50370611     -3.24519183     -1.63518822
    C      4.11832455     -1.76210492     -0.56360782
    C      5.00848176     -0.53619247     -0.70047570
    O      3.15653001     -1.50229821      0.46813862
    H      3.77224047     -2.89699336     -3.86172351
    H      4.99333599     -3.36045507     -2.68483313
    H      4.95561337     -1.69592621     -3.31618222
    H      2.75767321     -1.31599239     -2.20411462
    H      2.90524827     -3.81281721     -0.95424966
    H      4.71721183     -2.60907867     -0.21013436
    H      4.43649761      0.32201517     -1.07041188
    H      5.84404511     -0.72045594     -1.38035868
    H      5.41394044     -0.24783148      0.27551876
    H      2.36466122     -1.12104751      0.04883835
