60
Energy:    -52.77684639
    H      0.53651687     -2.17041372     -6.30812401
    C      0.12764549     -1.34503205     -5.71589492
    C      0.07829360     -1.45322883     -4.32022882
    C     -0.34269506     -0.19189537     -6.35843795
    H      0.45252186     -2.36847423     -3.84973859
    C     -0.44845772     -0.39548003     -3.54943928
    H     -0.29891046     -0.12249125     -7.45027492
    C     -0.87443779      0.88016608     -5.60851067
    C     -0.52505869     -0.45014738     -2.08550834
    C     -0.91913882      0.76122568     -4.20953640
    C     -1.37937163      2.12439429     -6.30318468
    N     -1.08841581      0.48118788     -1.31891759
    N     -0.00574907     -1.50263641     -1.33669171
    H     -1.32301877      1.57229471     -3.59644505
    H     -0.56215286      2.63919023     -6.84003904
    H     -2.15225065      1.87687910     -7.05122563
    H     -1.81350412      2.83657311     -5.58542475
    C     -0.93412088      0.02846728     -0.01713069
    H      0.49892215     -2.30604403     -1.69781794
    C     -0.25160268     -1.22630156     -0.00173401
    C     -1.34054889      0.62096738      1.19073889
    C      0.03687567     -1.90820925      1.18870169
    H     -1.86171096      1.58185257      1.17660538
    C     -1.01597420     -0.01578179      2.40332775
    H      0.56113819     -2.86789734      1.19692299
    C     -0.38031057     -1.30194042      2.37781806
    C     -1.32807562      0.63604281      3.70329021
    H     -0.21714035     -1.82819079      3.32313813
    C     -0.40264117      0.56620073      4.78472313
    C     -2.54540045      1.32971778      3.86839711
    H      0.53505577      0.02386030      4.63182670
    C     -0.62784019      1.20745330      6.00616676
    H     -3.28077065      1.35552640      3.05870236
    C     -2.76379211      1.96779672      5.09293717
    H      0.09428651      1.14336814      6.82383118
    C     -1.81446998      1.94596812      6.16008430
    N     -3.82285757      2.71794844      5.58774901
    N     -2.26511240      2.70899864      7.23366514
    H     -4.68303010      2.94224174      5.09632177
    C     -3.48951058      3.10813139      6.87958726
    C     -4.43116609      3.88683983      7.73978030
    H     -3.94604682      4.07293475      8.70741606
    H     -5.37052598      3.33391770      7.91765982
    H     -4.68848321      4.85859624      7.28301190
    C      4.86387738     -0.80227106     -1.18641814
    C      3.92032437     -1.98825907     -1.04633191
    O      3.07380992     -1.74963520      0.08525544
    C      3.06142435     -2.24029206     -2.30512663
    C      3.87926977     -2.60252746     -3.53552835
    O      2.13468610     -3.30610003     -2.05560996
    H      5.37181359     -0.60771469     -0.23580169
    H      4.31140886      0.10757262     -1.44197243
    H      5.62511675     -0.98212132     -1.94933786
    H      4.49852024     -2.88655545     -0.80221279
    H      2.27663578     -1.28863188     -0.22954820
    H      2.45150922     -1.35577522     -2.52101434
    H      4.51278839     -3.47486433     -3.34002505
    H      4.51412734     -1.77214167     -3.85455080
    H      3.21902918     -2.87230889     -4.36704163
    H      2.55869556     -3.93295115     -1.44283378
