60
Energy:    -52.74201473
    H      0.49481809     -2.14292937     -6.32832035
    C      0.08241845     -1.32308223     -5.73087311
    C      0.04872511     -1.43344425     -4.33491073
    C     -0.40801261     -0.17481504     -6.36708522
    H      0.43849207     -2.34476885     -3.86945268
    C     -0.48242548     -0.38283414     -3.55740610
    H     -0.37629967     -0.10365520     -7.45922650
    C     -0.94453690      0.89007192     -5.61037229
    C     -0.54328894     -0.44006835     -2.09283453
    C     -0.97341982      0.76901785     -4.21116334
    C     -1.47116276      2.12907760     -6.29824155
    N     -1.10960135      0.48371197     -1.31931131
    N     -0.00398011     -1.48724121     -1.35073143
    H     -1.38044575      1.57458815     -3.59292440
    H     -0.66561472      2.65404643     -6.84282769
    H     -2.24875342      1.87335839     -7.03860055
    H     -1.90619890      2.83528985     -5.57515316
    C     -0.93659903      0.03134851     -0.01975389
    H      0.50633163     -2.28425477     -1.71804643
    C     -0.23928729     -1.21533641     -0.01296639
    C     -1.33747930      0.61765617      1.19298158
    C      0.06942282     -1.89516830      1.17357550
    H     -1.86999440      1.57237109      1.18542555
    C     -0.99297864     -0.01662179      2.40136097
    H      0.60496301     -2.84864305      1.17518925
    C     -0.34256914     -1.29519777      2.36768688
    C     -1.29929060      0.63000870      3.70528850
    H     -0.16350380     -1.82057473      3.31061247
    C     -0.36200473      0.56980345      4.77705084
    C     -2.52290207      1.30915299      3.88379057
    H      0.58036367      0.03868582      4.61382748
    C     -0.58211007      1.20697270      6.00155604
    H     -3.26682989      1.32724938      3.08174012
    C     -2.73613175      1.94322522      5.11131797
    H      0.14910697      1.15043782      6.81166372
    C     -1.77567152      1.93132691      6.16861006
    N     -3.79876773      2.68032424      5.61794980
    N     -2.22414504      2.68778726      7.24773435
    H     -4.66653083      2.89506273      5.13568475
    C     -3.45672472      3.07291946      6.90678050
    C     -4.39853449      3.83953473      7.77760159
    H     -3.90568496      4.03020837      8.74042759
    H     -5.32946107      3.27541797      7.96444108
    H     -4.67192600      4.80872352      7.32473277
    C      4.88476701     -0.80633652     -1.19137152
    C      3.92989165     -1.98353213     -1.05386680
    O      3.08643983     -1.73980973      0.07892022
    C      3.06779867     -2.22384886     -2.31277011
    C      3.88132614     -2.59063210     -3.54468614
    O      2.13096754     -3.28132921     -2.06552176
    H      5.39516190     -0.61926958     -0.24056869
    H      4.34095038      0.10948880     -1.44410153
    H      5.64374941     -0.99146313     -1.95527719
    H      4.49953871     -2.88802820     -0.81255771
    H      2.29355610     -1.27027857     -0.23410993
    H      2.46631866     -1.33290176     -2.52586415
    H      4.50651324     -3.46957259     -3.35195911
    H      4.52397220     -1.76555510     -3.86188323
    H      3.21798298     -2.85177202     -4.37648888
    H      2.54929125     -3.91390303     -1.45472176
