60
Energy:    -52.68856651
    H      0.50886080     -2.20177055     -6.31403800
    C      0.09311171     -1.37794391     -5.72443782
    C      0.05890424     -1.47554371     -4.32753764
    C     -0.40104776     -0.23737704     -6.37152331
    H      0.45165607     -2.38111917     -3.85344788
    C     -0.47654634     -0.41973395     -3.56009095
    H     -0.36887778     -0.17618170     -7.46425486
    C     -0.94190998      0.83249761     -5.62500253
    C     -0.53816053     -0.46367388     -2.09509164
    C     -0.97127056      0.72425365     -4.22475426
    C     -1.47255799      2.06319100     -6.32460276
    N     -1.10831196      0.46514838     -1.33047765
    N      0.00444195     -1.50199762     -1.34302226
    H     -1.38160802      1.53401540     -3.61422819
    H     -0.66855551      2.58602444     -6.87351003
    H     -2.24873547      1.79784061     -7.06305295
    H     -1.91061513      2.77446554     -5.60833223
    C     -0.93452671      0.02542238     -0.02669403
    H      0.51786949     -2.30051441     -1.70264997
    C     -0.23272079     -1.21861574     -0.00796962
    C     -1.33831534      0.62143913      1.18033032
    C      0.07766692     -1.88635064      1.18498662
    H     -1.87427056      1.57411076      1.16363399
    C     -0.99231615     -0.00041311      2.39472496
    H      0.61664663     -2.83782604      1.19573135
    C     -0.33727049     -1.27688372      2.37325469
    C     -1.30181464      0.65710698      3.69243949
    H     -0.15692527     -1.79288787      3.32109926
    C     -0.36501858      0.61018364      4.76529332
    C     -2.52798785      1.33343755      3.86390733
    H      0.57936874      0.08099585      4.60756300
    C     -0.58822493      1.25782213      5.98372975
    H     -3.27145146      1.34144196      3.06126245
    C     -2.74430936      1.97803194      5.08539866
    H      0.14266157      1.21140946      6.79477833
    C     -1.78450413      1.97936352      6.14335147
    N     -3.80993212      2.71592404      5.58454733
    N     -2.23641293      2.74411975      7.21517064
    H     -4.67814964      2.92306308      5.09978270
    C     -3.47015250      3.12162788      6.86991233
    C     -4.41529467      3.89283185      7.73303731
    H     -3.92376694      4.09416204      8.69436849
    H     -5.34429945      3.32709831      7.92449667
    H     -4.69188909      4.85680586      7.27107451
    C      4.87999070     -0.81780506     -1.12017798
    C      3.94056287     -2.01099244     -1.01887041
    O      3.10534205     -1.82092144      0.13017146
    C      3.06917188     -2.21375561     -2.27798075
    C      3.87496983     -2.52338203     -3.53049627
    O      2.14743131     -3.29128012     -2.06261065
    H      5.39735848     -0.66082936     -0.16770110
    H      4.32288914      0.10024574     -1.33269996
    H      5.63364692     -0.96440451     -1.89760252
    H      4.52324591     -2.91697182     -0.81756755
    H      2.30392182     -1.34956383     -0.15733440
    H      2.45509544     -1.32277847     -2.45131241
    H      4.51240951     -3.40129639     -3.37727736
    H      4.50464214     -1.67901650     -3.82190601
    H      3.20671113     -2.76077543     -4.36547453
    H      2.57917337     -3.94147442     -1.48031591
