60
Energy:    -52.91067363
    H      1.23804935     -2.28628343     -6.16185113
    C      0.74615850     -1.46175728     -5.63519564
    C      0.56203173     -1.53855219     -4.24875203
    C      0.30516763     -0.34109732     -6.35175290
    H      0.91688000     -2.42892328     -3.71922015
    C     -0.07227044     -0.48171572     -3.56233128
    H      0.45484786     -0.29606666     -7.43545492
    C     -0.33248730      0.72937312     -5.68696255
    C     -0.29198958     -0.50435577     -2.11210340
    C     -0.51197230      0.64208311     -4.29648076
    C     -0.80563064      1.93861519     -6.46123833
    N     -0.95822663      0.42481294     -1.43005376
    N      0.18392789     -1.52024918     -1.28772172
    H     -1.00051039      1.45297529     -3.74819488
    H      0.04390013      2.46852110     -6.92875433
    H     -1.49211542      1.64689537     -7.27475489
    H     -1.33147242      2.65213368     -5.80914110
    C     -0.91944996      0.00861856     -0.10767310
    H      0.74745524     -2.31404107     -1.57564595
    C     -0.20193717     -1.22108154      0.00862849
    C     -1.46254125      0.61511470      1.03792861
    C     -0.01130688     -1.86425538      1.23962098
    H     -2.01027738      1.55679906      0.94668342
    C     -1.23965852      0.01883201      2.29329320
    H      0.54006115     -2.80477633      1.32525763
    C     -0.56367815     -1.24481824      2.36513757
    C     -1.69998030      0.69004093      3.53818975
    H     -0.47833831     -1.74260287      3.33576704
    C     -0.88468112      0.67784397      4.70692516
    C     -2.94930068      1.34491495      3.56395038
    H      0.08047078      0.16479039      4.66171626
    C     -1.25044272      1.33963808      5.88254883
    H     -3.60112887      1.32611767      2.68542452
    C     -3.30849757      2.00384687      4.74340972
    H     -0.61134909      1.31992296      6.76873145
    C     -2.46956315      2.04010939      5.89899012
    N     -4.43495507      2.72841989      5.11120509
    N     -3.04876964      2.81228067      6.90205610
    H     -5.24885784      2.91114551      4.53165472
    C     -4.24415068      3.16034553      6.41858526
    C     -5.29101716      3.92615329      7.16063852
    H     -4.91054657      4.15174989      8.16594410
    H     -6.22517319      3.34543951      7.26006197
    H     -5.53276629      4.87735336      6.65473755
    C      4.98220973     -0.71380776     -0.69165926
    C      4.04479660     -1.90990104     -0.60738904
    O      3.09011888     -1.65230775      0.43003766
    C      3.31458751     -2.21115986     -1.93472917
    C      4.25184292     -2.59556870     -3.06952260
    O      2.38181877     -3.28374922     -1.74356550
    H      5.39357436     -0.48427618      0.29708611
    H      4.44536527      0.17962899     -1.02619446
    H      5.81571220     -0.90346220     -1.37223463
    H      4.60820140     -2.79172141     -0.28210628
    H      2.32118579     -1.21298674      0.02648970
    H      2.71706769     -1.34280085     -2.23455692
    H      4.87466423     -3.45196774     -2.78807403
    H      4.90383025     -1.76481953     -3.35082020
    H      3.67837297     -2.89926259     -3.95214157
    H      2.75274387     -3.88614815     -1.07442343
