60
Energy:    -51.56358879
    H      0.23051771     -2.09642325     -6.41208057
    C     -0.16166681     -1.28194566     -5.79403239
    C     -0.13768157     -1.39944465     -4.39845198
    C     -0.68404410     -0.13336785     -6.40370197
    H      0.27582629     -2.31081628     -3.95404787
    C     -0.64243885     -0.35579003     -3.59444880
    H     -0.69737677     -0.05659312     -7.49584201
    C     -1.19509922      0.92463574     -5.62017912
    C     -0.64309195     -0.42066048     -2.12893135
    C     -1.16611571      0.79645655     -4.22160698
    C     -1.75625443      2.16399820     -6.27951176
    N     -1.18244044      0.49598552     -1.32813092
    N     -0.06811251     -1.46839255     -1.41492984
    H     -1.55200238      1.59658517     -3.58307846
    H     -0.97655427      2.69629682     -6.85379379
    H     -2.56201602      1.90749616     -6.98882549
    H     -2.16529239      2.86408875     -5.53559633
    C     -0.95397763      0.03816402     -0.03909399
    H      0.43117722     -2.26061897     -1.80691971
    C     -0.25006757     -1.20450627     -0.06727507
    C     -1.30821723      0.61611351      1.19203464
    C      0.11063142     -1.88844639      1.10211672
    H     -1.84588295      1.56777432      1.21119887
    C     -0.91111850     -0.02217673      2.38202127
    H      0.65107000     -2.83882009      1.07689818
    C     -0.25554715     -1.29680570      2.31516188
    C     -1.16747872      0.61618422      3.70071749
    H     -0.03519323     -1.82582911      3.24724148
    C     -0.18686477      0.55604076      4.73298832
    C     -2.38652259      1.28737998      3.93256504
    H      0.75097854      0.03117308      4.52866055
    C     -0.36028436      1.18583197      5.96876042
    H     -3.16268919      1.30518628      3.16166339
    C     -2.55293170      1.91409879      5.17105991
    H      0.40372467      1.12947506      6.74803130
    C     -1.55002225      1.90246623      6.18817805
    N     -3.59805128      2.64254109      5.72448820
    N     -1.95821751      2.65095447      7.28863795
    H     -4.48597225      2.85468001      5.27918108
    C     -3.20581592      3.03067986      7.00030508
    C     -4.11549528      3.78752059      7.91283430
    H     -3.58478210      3.97623355      8.85571389
    H     -5.03486746      3.21713390      8.13458827
    H     -4.41253319      4.75736172      7.47655838
    C      4.90048079     -0.85491430     -1.18097883
    C      3.91085824     -2.00479656     -1.05890507
    O      3.08022826     -1.75516778      0.08204073
    C      3.03629505     -2.19710717     -2.31745577
    C      3.83283328     -2.56710479     -3.55947132
    O      2.06883493     -3.22978676     -2.08369781
    H      5.42052970     -0.69983931     -0.22965140
    H      4.38365979      0.08120846     -1.41531879
    H      5.65009503     -1.04978103     -1.95168205
    H      4.45379155     -2.93018365     -0.83591820
    H      2.30061631     -1.25647186     -0.21899014
    H      2.46125651     -1.28478162     -2.51230636
    H      4.43184283     -3.46779906     -3.38489642
    H      4.49886899     -1.75655642     -3.86568653
    H      3.15818162     -2.79361967     -4.39232794
    H      2.47042157     -3.88519767     -1.48588034
