60
Energy:    -51.44283063
    H      0.41352187     -2.36480573     -6.23784395
    C      0.00269469     -1.52502100     -5.66762589
    C     -0.01134677     -1.58026815     -4.26806289
    C     -0.50535163     -0.40650877     -6.34188499
    H      0.39186973     -2.46953668     -3.77238159
    C     -0.54032205     -0.50365746     -3.52542530
    H     -0.48889354     -0.37841649     -7.43631724
    C     -1.04009292      0.68350411     -5.62051085
    C     -0.58102970     -0.50330444     -2.05903764
    C     -1.04919598      0.61773777     -4.21734802
    C     -1.58574494      1.89036776     -6.34946765
    N     -1.14420872      0.44616140     -1.31488577
    N     -0.02349062     -1.51624960     -1.28364466
    H     -1.45425713      1.44412030     -3.62586651
    H     -0.79178761      2.39931161     -6.92538598
    H     -2.37116519      1.59978308     -7.06838808
    H     -2.01661385      2.62141713     -5.64891943
    C     -0.95015973      0.04690360     -0.00097930
    H      0.48814991     -2.32338194     -1.62617985
    C     -0.24294004     -1.19333744      0.04544777
    C     -1.33934042      0.67778677      1.19305329
    C      0.08708714     -1.82334917      1.25355467
    H     -1.87947495      1.62748460      1.15512275
    C     -0.97359522      0.09442167      2.42068744
    H      0.63015665     -2.77202073      1.28545754
    C     -0.31356283     -1.17963396      2.42859267
    C     -1.26747199      0.78988979      3.70214971
    H     -0.11766721     -1.66592236      3.38897932
    C     -0.31541048      0.77911119      4.76246414
    C     -2.49392802      1.46649065      3.87050014
    H      0.62886653      0.24893936      4.60740041
    C     -0.52408399      1.46261923      5.96376183
    H     -3.24869385      1.44730583      3.07866589
    C     -2.69566147      2.14707477      5.07484514
    H      0.21838626      1.44362168      6.76533904
    C     -1.72100667      2.18416253      6.11847560
    N     -3.75720964      2.89576794      5.56653610
    N     -2.16092288      2.97941737      7.17294867
    H     -4.63305739      3.08481096      5.08814457
    C     -3.40099587      3.34160992      6.83403193
    C     -4.33706982      4.13511054      7.68676654
    H     -3.83284788      4.36740292      8.63444342
    H     -5.26089001      3.57195678      7.90852116
    H     -4.62421536      5.08355648      7.19977809
    C      4.91178104     -0.88451328     -1.24000095
    C      3.97490262     -2.06876607     -1.04950645
    O      3.15431721     -1.80475715      0.09546380
    C      3.08761700     -2.35282440     -2.28150852
    C      3.87757081     -2.74284709     -3.52160097
    O      2.16977535     -3.41426332     -1.98492276
    H      5.44118084     -0.66606881     -0.30643742
    H      4.35109623      0.01775399     -1.50437060
    H      5.65553720     -1.08107243     -2.01593218
    H      4.56101091     -2.95971056     -0.79744296
    H      2.34880957     -1.35313926     -0.21163673
    H      2.47049177     -1.47504265     -2.50428564
    H      4.51778629     -3.60889343     -3.32003988
    H      4.50262092     -1.91904759     -3.87519217
    H      3.19888009     -3.03394827     -4.33076907
    H      2.60959576     -4.02529349     -1.36732974
