60
Energy:    -51.24421371
    H     -3.19006893     -3.75521666      4.43355084
    C     -3.36659904     -2.93391182      3.73108270
    C     -2.27780756     -2.30960956      3.10914557
    C     -4.67677939     -2.51519442      3.46292378
    H     -1.26681584     -2.65997956      3.34199449
    C     -2.49582714     -1.24952853      2.20409769
    H     -5.51766796     -3.01193248      3.95789824
    C     -4.92039188     -1.45627217      2.56081869
    C     -1.39664551     -0.55829669      1.52149363
    C     -3.82131619     -0.83727212      1.94263945
    C     -6.33461960     -1.00728814      2.27097854
    N     -1.54181383      0.49938931      0.72610412
    N     -0.06515897     -0.94728462      1.63970521
    H     -3.97225339     -0.01480851      1.23722852
    H     -6.91878739     -1.81595351      1.79570776
    H     -6.86248210     -0.72978385      3.19970000
    H     -6.34941781     -0.13817954      1.59623394
    C     -0.26057919      0.81933703      0.30244949
    H      0.28431553     -1.74479506      2.16163785
    C      0.69259989     -0.08209823      0.86758410
    C      0.16839023      1.84803787     -0.55367482
    C      2.06563726      0.01515025      0.60175312
    H     -0.56299570      2.53602664     -0.98594333
    C      1.53474061      1.93529150     -0.88023789
    H      2.79244860     -0.67779049      1.03476398
    C      2.46988386      1.04845134     -0.24940935
    C      2.00971310      2.93787795     -1.87089754
    H      3.53840038      1.18643404     -0.44026851
    C      3.01751486      2.59353140     -2.81776873
    C      1.45947894      4.23692947     -1.87660144
    H      3.42766017      1.57961898     -2.79435012
    C      3.45723551      3.48415776     -3.80126985
    H      0.71456456      4.52466986     -1.12870504
    C      1.90477402      5.12222554     -2.86265477
    H      4.23062028      3.20158983     -4.51972678
    C      2.87501523      4.76324010     -3.84766921
    N      1.58875078      6.44298623     -3.15404199
    N      3.08589133      5.81485235     -4.73508848
    H      0.92602758      7.02784337     -2.65359710
    C      2.34460939      6.81845964     -4.25853576
    C      2.29993117      8.20465429     -4.81486501
    H      2.97773878      8.25572010     -5.67757013
    H      2.62286446      8.95233119     -4.06890634
    H      1.28316907      8.47449368     -5.15033714
    C      0.68491079     -5.25133154     -0.67455566
    C      1.35176176     -4.39765116      0.39456715
    O      1.70062194     -3.13966570     -0.19686093
    C      0.46456776     -4.16912648      1.63813350
    C      0.12936103     -5.44932833      2.38826261
    O      1.12394739     -3.27817204      2.54833551
    H      1.31367649     -5.29655381     -1.57017368
    H     -0.27146884     -4.81573400     -0.98104840
    H      0.51481718     -6.27258558     -0.32529024
    H      2.29950505     -4.86079126      0.69142555
    H      0.95313818     -2.53029351     -0.06630231
    H     -0.46352707     -3.66599712      1.34406746
    H      1.04189630     -5.98185481      2.67849341
    H     -0.49027127     -6.11768667      1.78517642
    H     -0.40956231     -5.21953622      3.31393600
    H      2.08267749     -3.43179553      2.47446117
