60
Energy:    -50.90009390
    H      5.27294250      4.06024578      0.91872529
    C      4.52584138      3.47719031      1.46740756
    C      3.43382039      2.93124123      0.78078120
    C      4.66813794      3.28463785      2.84816142
    H      3.35159109      3.10183488     -0.29774472
    C      2.46557770      2.18018208      1.47994659
    H      5.52635519      3.71882567      3.37140716
    C      3.71203513      2.53666448      3.56986792
    C      1.30186426      1.58301285      0.81578551
    C      2.62090432      1.99359296      2.87145482
    C      3.86827371      2.32803619      5.05906157
    N      0.31799926      0.93935095      1.44038700
    N      1.10631820      1.63073374     -0.56175812
    H      1.86166332      1.40745169      3.39759598
    H      4.78580318      1.75559700      5.28605723
    H      3.94899901      3.29233895      5.58988604
    H      3.01344751      1.77683010      5.47893419
    C     -0.55779304      0.54638478      0.43939877
    H      1.73822131      2.03591795     -1.24520029
    C     -0.08095987      0.97266980     -0.83787340
    C     -1.76390356     -0.16867895      0.53516031
    C     -0.77645367      0.70488867     -2.02528093
    H     -2.12629991     -0.49491686      1.51360178
    C     -2.45469970     -0.49789490     -0.64618958
    H     -0.40759227      1.03125299     -3.00167614
    C     -1.97573608     -0.00432370     -1.90551651
    C     -3.67237992     -1.35036154     -0.59383980
    H     -2.57117007     -0.18845082     -2.80482156
    C     -3.89672393     -2.34777455     -1.58663438
    C     -4.61085975     -1.17391280      0.44464297
    H     -3.15390468     -2.46645484     -2.38093946
    C     -4.99800483     -3.20778905     -1.54922541
    H     -4.46930962     -0.38462359      1.18897294
    C     -5.70998473     -2.03724550      0.47495675
    H     -5.15272671     -3.96757565     -2.31924779
    C     -5.90983752     -3.07394476     -0.48723113
    N     -6.79983002     -2.14390993      1.32938401
    N     -7.04859598     -3.81414691     -0.18194451
    H     -6.98913538     -1.56079673      2.13922812
    C     -7.58451594     -3.19726553      0.87450055
    C     -8.87824874     -3.56107301      1.52790209
    H     -9.30992274     -4.41759436      0.99281355
    H     -9.59946673     -2.72532753      1.49421085
    H     -8.73313461     -3.84412538      2.58524936
    C      3.91197279     -1.79736760     -2.25258074
    C      3.31545543     -0.51301755     -2.81034051
    O      1.88820421     -0.64145026     -2.78850032
    C      3.74440597      0.75050603     -2.03232791
    C      5.24043396      1.01995376     -2.08953081
    O      3.06376354      1.89870153     -2.55713452
    H      3.49718754     -2.66601723     -2.77500205
    H      3.66166460     -1.91585613     -1.19350035
    H      4.99855835     -1.81817438     -2.36561568
    H      3.58985518     -0.41289194     -3.86652262
    H      1.56967329     -0.29402190     -1.93706413
    H      3.42952190      0.66639275     -0.98602634
    H      5.58478105      1.09064523     -3.12730092
    H      5.80936893      0.23592044     -1.58360120
    H      5.47421784      1.97863671     -1.61373034
    H      2.93233002      1.75734652     -3.51157937
