60
Energy:    -50.27660772
    H     -6.06454641      3.30620444     -6.09580994
    C     -5.77644728      2.48411975     -5.43222750
    C     -4.81898315      2.70422943     -4.43380867
    C     -6.36572337      1.22236579     -5.58886920
    H     -4.37675809      3.70152726     -4.33938390
    C     -4.44051974      1.65039819     -3.57554229
    H     -7.11164024      1.06518392     -6.37483605
    C     -6.00324421      0.15185742     -4.74206480
    C     -3.44508299      1.82031134     -2.51150038
    C     -5.04215215      0.38356923     -3.74412408
    C     -6.64159979     -1.20813953     -4.91101588
    N     -2.99175030      0.84101843     -1.73182553
    N     -2.86344326      3.04737489     -2.20465795
    H     -4.73806877     -0.42183832     -3.06907966
    H     -7.72975761     -1.16236599     -4.72422365
    H     -6.50546232     -1.58697021     -5.93869526
    H     -6.20987615     -1.94331884     -4.21533271
    C     -2.07936551      1.44314762     -0.87835822
    H     -3.07752271      3.93972002     -2.63877676
    C     -1.97995195      2.84044615     -1.15797719
    C     -1.30596608      0.87648128      0.14922709
    C     -1.12752988      3.69004978     -0.43901593
    H     -1.38454756     -0.19289785      0.36221351
    C     -0.48223607      1.71625033      0.92216100
    H     -1.05519738      4.75972354     -0.65462216
    C     -0.36480685      3.10379227      0.57595191
    C      0.26267665      1.17338538      2.08946032
    H      0.34845050      3.72565908      1.12526022
    C      0.37234091      1.93258684      3.29045611
    C      0.86302503     -0.10084556      2.01045191
    H     -0.10290367      2.91723512      3.32782421
    C      1.01579531      1.44256128      4.43049355
    H      0.81977642     -0.67520878      1.08024900
    C      1.50535525     -0.58381012      3.15434662
    H      1.08893977      2.03925671      5.34304681
    C      1.57008820      0.15139046      4.37736819
    N      2.18659720     -1.76381772      3.42393424
    N      2.21513205     -0.59080595      5.36272747
    H      2.34064082     -2.53129106      2.77666287
    C      2.61811887     -1.70369303      4.74392783
    C      3.44114740     -2.78901426      5.35853003
    H      3.65649117     -2.51537709      6.40018293
    H      4.39869699     -2.92424592      4.82507696
    H      2.90757241     -3.75566727      5.35223067
    C      5.60491021     -0.59570644      0.40764072
    C      5.13877984     -1.84334488      1.14425785
    O      5.07430316     -1.53429339      2.54223780
    C      3.77098770     -2.36871630      0.65545979
    C      3.77707785     -2.81690507     -0.79817831
    O      3.36050183     -3.48031649      1.46347920
    H      6.52481027     -0.21001943      0.85991542
    H      4.85835533      0.20164974      0.47991750
    H      5.80374534     -0.80211322     -0.64674955
    H      5.89726656     -2.62824165      1.04691327
    H      4.17629027     -1.21342085      2.73646874
    H      3.00586245     -1.59665810      0.79504299
    H      4.54716794     -3.57742431     -0.96879702
    H      3.95543084     -1.97855248     -1.47620128
    H      2.81738685     -3.27556076     -1.06036553
    H      4.16136210     -3.96091479      1.73892266
