60
Energy:    -50.27659695
    H      6.71591073      1.11429041     -6.20673165
    C      6.00590843      1.58583425     -5.51919318
    C      5.39075141      0.81525462     -4.52429877
    C      5.71893974      2.95199185     -5.64194649
    H      5.63584535     -0.24984850     -4.45672428
    C      4.47342350      1.41408713     -3.63529646
    H      6.20658286      3.54104323     -6.42556927
    C      4.80419616      3.57398699     -4.76398110
    C      3.79908834      0.65956686     -2.57326008
    C      4.19307386      2.79195793     -3.76988147
    C      4.49744081      5.04843478     -4.89641553
    N      2.86492363      1.15551127     -1.76468514
    N      4.07433533     -0.67736501     -2.29940926
    H      3.48048722      3.24033913     -3.07130607
    H      5.39967301      5.65996703     -4.71453818
    H      4.14144746      5.29134895     -5.91250236
    H      3.72513140      5.36369933     -4.17878370
    C      2.51181032      0.10921006     -0.92565191
    H      4.77165064     -1.25424994     -2.75932679
    C      3.26359074     -1.06285159     -1.24441622
    C      1.57338220      0.07799351      0.12008572
    C      3.10406179     -2.26849329     -0.54703999
    H      1.00001071      0.97651261      0.36302308
    C      1.43199045     -1.10370354      0.87159784
    H      3.68256126     -3.16344941     -0.79262480
    C      2.16220079     -2.27737163      0.48660551
    C      0.53335857     -1.13979544      2.05622568
    H      1.97437110     -3.21384460      1.02039608
    C      0.92376527     -1.83800876      3.23558346
    C     -0.71195608     -0.47809950      2.01530010
    H      1.89467710     -2.34204606      3.24349621
    C      0.13747103     -1.85502894      4.39113341
    H     -1.03953208      0.02677334      1.10160520
    C     -1.49304595     -0.50017708      3.17450206
    H      0.45414213     -2.39532284      5.28665053
    C     -1.08061089     -1.15271515      4.37641029
    N     -2.73986671      0.03041128      3.47962494
    N     -2.02223167     -0.96566361      5.38449364
    H     -3.33550579      0.56574935      2.85485919
    C     -3.02348184     -0.30364360      4.79878331
    C     -4.32035148      0.05905301      5.44655975
    H     -4.30847510     -0.31057418      6.48073851
    H     -5.17838504     -0.39543583      4.92027153
    H     -4.47223348      1.15254167      5.46590935
    C     -4.83598522     -2.89023344      0.44260272
    C     -5.19559866     -1.62767731      1.21274181
    O     -4.93151645     -1.86535726      2.60118944
    C     -4.42478309     -0.37748222      0.73456865
    C     -4.72654127      0.00769183     -0.70576358
    O     -4.74607307      0.74137678      1.57240891
    H     -5.33259812     -3.75949657      0.88676511
    H     -3.75935292     -3.08252792      0.48983318
    H     -5.13943118     -2.82233279     -0.60486473
    H     -6.27481226     -1.45198452      1.14013969
    H     -4.01660826     -1.58808364      2.78332767
    H     -3.34711681     -0.53979757      0.84973425
    H     -5.80187927      0.15844056     -0.85226274
    H     -4.38051264     -0.75607857     -1.40667653
    H     -4.23805161      0.95525686     -0.95797851
    H     -5.66966642      0.64041573      1.86396197
