60
Energy:    -50.27656429
    H     -5.91765259      2.09759941     -6.74166786
    C     -5.53975417      1.34045580     -6.04661942
    C     -4.76274531      1.73469452     -4.94987010
    C     -5.83498444     -0.01251218     -6.26138144
    H     -4.54909151      2.79977846     -4.81191991
    C     -4.27024903      0.76585569     -4.05030646
    H     -6.44238581     -0.30550996     -7.12396933
    C     -5.35333868     -1.00074948     -5.37489319
    C     -3.45307608      1.11760061     -2.88392150
    C     -4.57514773     -0.59440349     -4.27827302
    C     -5.67465274     -2.45971875     -5.60684132
    N     -2.89464149      0.23854140     -2.05457012
    N     -3.17442625      2.43231003     -2.52055473
    H     -4.18639877     -1.33214863     -3.57014920
    H     -6.76249469     -2.64238487     -5.54121384
    H     -5.35230673     -2.78355796     -6.61152645
    H     -5.17854665     -3.10284997     -4.86447349
    C     -2.22465525      0.99991784     -1.10861222
    H     -3.51980778      3.26924286     -2.97971054
    C     -2.38634540      2.39262012     -1.38201607
    C     -1.46721018      0.58594132      0.00048174
    C     -1.81118592      3.38623950     -0.57748696
    H     -1.34578507     -0.48041612      0.20844267
    C     -0.92378321      1.56304479      0.85554077
    H     -1.93846346      4.45164651     -0.78874118
    C     -1.05870249      2.95112735      0.51798103
    C     -0.21414001      1.16393724      2.10025145
    H     -0.55336290      3.69637624      1.13961597
    C     -0.39491561      1.90737301      3.30251076
    C      0.64151573      0.04227094      2.09369590
    H     -1.06455895      2.77222838      3.28278823
    C      0.20811725      1.53957309      4.50871082
    H      0.81924579     -0.51159301      1.16704184
    C      1.24157716     -0.31892241      3.30357344
    H      0.05676008      2.12176472      5.42101171
    C      1.01967799      0.39137746      4.52288753
    N      2.11853463     -1.33811609      3.65196379
    N      1.69317659     -0.21999359      5.57668783
    H      2.49726043     -2.04547093      3.02913083
    C      2.38224889     -1.21456920      5.01115471
    C      3.34001167     -2.11823471      5.71763409
    H      3.37965153     -1.82520738      6.77539336
    H      4.35701625     -2.04364987      5.29348813
    H      3.02162271     -3.17375393      5.65707293
    C      5.52879304      0.56369844      1.02506437
    C      5.25331249     -0.76643366      1.71160867
    O      4.97482019     -0.50288714      3.09255156
    C      4.08501494     -1.55313769      1.07759637
    C      4.34153586     -1.96382045     -0.36445449
    O      3.82776886     -2.74001801      1.84060918
    H      6.29441285      1.12218610      1.57410065
    H      4.63024532      1.18880643      1.01102856
    H      5.87937746      0.42196194     -0.00005968
    H      6.16361192     -1.37643642      1.70198589
    H      4.01421106     -0.37738587      3.18524209
    H      3.16632302     -0.95783519      1.12852858
    H      5.26604383     -2.54624363     -0.44573956
    H      4.41540310     -1.09445689     -1.02256590
    H      3.53164498     -2.60536843     -0.72860687
    H      4.67587327     -3.05038427      2.20476943
