60
Energy:    -52.91047326
    H     -0.56908592     -0.70849695     -6.62589071
    C     -0.66488836      0.03902127     -5.83140698
    C     -0.65015077     -0.36969030     -4.49171908
    C     -0.80263937      1.39390551     -6.16173915
    H     -0.54262477     -1.43621156     -4.26799477
    C     -0.77475371      0.58632974     -3.46171142
    H     -0.81391131      1.69799097     -7.21352192
    C     -0.92902252      2.36947550     -5.14845365
    C     -0.76489906      0.21941760     -2.04141977
    C     -0.91292797      1.94868240     -3.80832376
    C     -1.07531606      3.83097985     -5.50655590
    N     -0.96319739      1.06909279     -1.03586130
    N     -0.54266318     -1.08015611     -1.59436119
    H     -1.00695021      2.67665068     -2.99711786
    H     -0.17824247      4.20263480     -6.03400788
    H     -1.93573895      3.99199484     -6.17880409
    H     -1.22120007      4.45131130     -4.60947411
    C     -0.86674851      0.30364918      0.11661677
    H     -0.33348313     -1.88766012     -2.17293702
    C     -0.60110782     -1.06125363     -0.21047394
    C     -0.98965858      0.69166209      1.46180379
    C     -0.45484320     -2.05236002      0.77017369
    H     -1.19181589      1.73700176      1.70981060
    C     -0.79380480     -0.27273811      2.46815540
    H     -0.24977651     -3.09609941      0.51625294
    C     -0.58503342     -1.64415700      2.10134791
    C     -0.80274867      0.12254424      3.90198136
    H     -0.52681764     -2.39833023      2.89193482
    C      0.12815556     -0.45401216      4.81401426
    C     -1.73558386      1.07492594      4.36362258
    H      0.84251956     -1.18914701      4.43185352
    C      0.19318451     -0.07506695      6.15789512
    H     -2.48100947      1.49398164      3.68114622
    C     -1.66485007      1.44827476      5.70896469
    H      0.91487188     -0.52784286      6.84222714
    C     -0.69755058      0.91294562      6.61353442
    N     -2.40775240      2.33235579      6.48076962
    N     -0.81942889      1.50320646      7.86836820
    H     -3.18943300      2.89810316      6.16357827
    C     -1.88424829      2.30316974      7.76813151
    C     -2.48212776      3.09629668      8.88460981
    H     -1.89887080      2.90893455      9.79620058
    H     -3.53120828      2.80654940      9.07232655
    H     -2.46041582      4.17915217      8.66987142
    C      4.27519284     -1.89552563     -1.98495364
    C      3.01161355     -2.74302471     -1.94499490
    O      2.37164932     -2.52486011     -0.68132248
    C      2.02891576     -2.43299213     -3.09563770
    C      2.59474153     -2.73464427     -4.47506554
    O      0.82794632     -3.19903631     -2.92861162
    H      4.88592604     -2.08352479     -1.09546824
    H      4.02959679     -0.82875140     -1.98044619
    H      4.88028939     -2.11735567     -2.86729574
    H      3.28439272     -3.80422386     -1.96199218
    H      1.74579079     -1.78705672     -0.78648553
    H      1.72378980     -1.38145194     -3.04942758
    H      2.92460558     -3.77735395     -4.54203738
    H      3.43918750     -2.08335407     -4.71400504
    H      1.82457476     -2.59768273     -5.24200667
    H      1.06958527     -4.04617974     -2.51366627
