60
Energy:    -52.90920754
    H     -1.73495962     -1.57934243     -6.26289147
    C     -2.14836953     -1.50011006     -5.25196097
    C     -1.28479396     -1.32276265     -4.16347067
    C     -3.53391144     -1.57835331     -5.05713389
    H     -0.20722056     -1.26734204     -4.35014184
    C     -1.80854819     -1.22145758     -2.85739457
    H     -4.19623080     -1.71860262     -5.91766001
    C     -4.08195540     -1.47970995     -3.75929942
    C     -0.95506266     -1.03395493     -1.67910971
    C     -3.20692306     -1.30190178     -2.67487485
    C     -5.57712110     -1.56210229     -3.55115275
    N     -1.38994238     -1.01717950     -0.42092999
    N      0.42263470     -0.85110973     -1.76071623
    H     -3.59604325     -1.22000770     -1.65570271
    H     -6.09499365     -0.72498211     -4.05326013
    H     -5.98701942     -2.49587964     -3.97330702
    H     -5.83601388     -1.52727222     -2.48222319
    C     -0.25927384     -0.81425336      0.35612962
    H      0.97203270     -0.79181884     -2.61231204
    C      0.90171968     -0.70618422     -0.46905405
    C     -0.13975438     -0.70975943      1.75254830
    C      2.18209282     -0.49668558      0.06208619
    H     -1.02979952     -0.79161854      2.38201531
    C      1.12598306     -0.44553347      2.30866284
    H      3.06857764     -0.41269154     -0.57274424
    C      2.27758629     -0.39983441      1.45388533
    C      1.27297541     -0.21518651      3.77068832
    H      3.26673987     -0.28632673      1.90763107
    C      2.15822560      0.79055648      4.25609241
    C      0.53136948     -0.99392326      4.68387763
    H      2.72125520      1.38229853      3.52833901
    C      2.28962718      1.07951978      5.61737043
    H     -0.12052628     -1.79564776      4.32427959
    C      0.66863531     -0.69955717      6.04359992
    H      2.97315295      1.85547193      5.97069719
    C      1.51349758      0.34421229      6.53067801
    N      0.10627328     -1.25121512      7.18754417
    N      1.41187252      0.45236112      7.91481896
    H     -0.55177632     -2.02418198      7.22215562
    C      0.60754184     -0.55008313      8.27811868
    C      0.25704101     -0.91570875      9.68399957
    H      0.77188993     -0.22257728     10.36281497
    H      0.57312289     -1.94573739      9.92668094
    H     -0.82985819     -0.84108158      9.86355713
    C      1.14270852      3.78045158     -3.19585452
    C      1.92138774      2.47386997     -3.25050959
    O      2.15931990      2.04332252     -1.90439103
    C      1.19774709      1.36160810     -4.04108642
    C      0.99449827      1.69569826     -5.51113665
    O      1.94747012      0.14159829     -3.96021340
    H      1.65082163      4.49741224     -2.54216385
    H      0.14416242      3.62209370     -2.77612430
    H      1.04468904      4.23173676     -4.18611300
    H      2.91080350      2.65765863     -3.68423668
    H      1.42027418      1.46830969     -1.63928033
    H      0.22718142      1.14940726     -3.57854228
    H      1.94986969      1.92997024     -5.99375563
    H      0.31853700      2.54466497     -5.64033376
    H      0.57477848      0.83531381     -6.04376024
    H      2.89200152      0.37414046     -3.91542979
