60
Energy:    -52.89986396
    H      0.60643996     -2.08862903     -6.32468845
    C      0.18808481     -1.27177051     -5.72728815
    C      0.12883224     -1.39441882     -4.33320331
    C     -0.28438691     -0.11501908     -6.36171909
    H      0.50505085     -2.31212693     -3.86914148
    C     -0.41016219     -0.34772938     -3.55580881
    H     -0.23276450     -0.03427730     -7.45243348
    C     -0.82830174      0.94616372     -5.60507867
    C     -0.49750479     -0.41770840     -2.09313174
    C     -0.88286333      0.81276690     -4.20775898
    C     -1.33552483      2.19432153     -6.29098012
    N     -1.07230245      0.50239900     -1.32149191
    N      0.02251717     -1.47460343     -1.35104545
    H     -1.29629809      1.61513205     -3.58960458
    H     -0.51741408      2.71943846     -6.81635714
    H     -2.10120099      1.94977168     -7.04735727
    H     -1.77940111      2.89655950     -5.56939527
    C     -0.92511134      0.03742676     -0.02320550
    H      0.53478516     -2.27125909     -1.71640864
    C     -0.23510792     -1.21331120     -0.01527874
    C     -1.34426507      0.61518733      1.18745212
    C      0.04849725     -1.90551861      1.17037382
    H     -1.87114156      1.57301852      1.17905062
    C     -1.02500763     -0.03187267      2.39598761
    H      0.57851151     -2.86207415      1.17289933
    C     -0.38135605     -1.31386459      2.36233676
    C     -1.35089704      0.60484038      3.70004957
    H     -0.22214528     -1.84869090      3.30350983
    C     -0.43326469      0.52958831      4.78774990
    C     -2.57363413      1.28947924      3.86286426
    H      0.50884459     -0.00553015      4.63654032
    C     -0.67159731      1.15704886      6.01385546
    H     -3.30299958      1.31908512      3.04788541
    C     -2.80516383      1.91377584      5.09208587
    H      0.04469783      1.08900866      6.83631567
    C     -1.86382894      1.88682238      6.16616879
    N     -3.87248755      2.65249248      5.58635685
    N     -2.32721631      2.63619862      7.24393379
    H     -4.73026539      2.87658993      5.09067298
    C     -3.55130569      3.03154170      6.88457598
    C     -4.50416364      3.79581063      7.74538300
    H     -4.02752169      3.97498757      8.71852178
    H     -5.44146136      3.23547918      7.91049705
    H     -4.76392425      4.77058886      7.29650460
    C      4.87839058     -0.81620387     -1.17307300
    C      3.91831586     -1.98955963     -1.03899547
    O      3.07060194     -1.74159313      0.08968151
    C      3.06111115     -2.22759567     -2.30166444
    C      3.87887957     -2.59859022     -3.52950476
    O      2.11904002     -3.28121370     -2.05786113
    H      5.38511777     -0.63031232     -0.22008040
    H      4.33931480      0.10151340     -1.42907555
    H      5.64016285     -1.00493198     -1.93331159
    H      4.48331839     -2.89605794     -0.79430391
    H      2.28100454     -1.26924935     -0.22739782
    H      2.46409333     -1.33449838     -2.51827692
    H      4.49974474     -3.47979056     -3.33315964
    H      4.52618904     -1.77628936     -3.84442021
    H      3.21836956     -2.85785792     -4.36414287
    H      2.53207578     -3.91488833     -1.44460840
