60
Energy:    -52.87171054
    H      0.58271035     -2.05915631     -6.34351119
    C      0.16839115     -1.24407082     -5.74089918
    C      0.11188303     -1.37382027     -4.34734333
    C     -0.30170807     -0.08247359     -6.36819863
    H      0.48613078     -2.29517180     -3.88894177
    C     -0.42191299     -0.32945547     -3.56326427
    H     -0.25228293      0.00380709     -7.45859067
    C     -0.84042368      0.97650905     -5.60478637
    C     -0.50618302     -0.40680371     -2.10077810
    C     -0.89226887      0.83597900     -4.20806257
    C     -1.34508984      2.22989413     -6.28299866
    N     -1.07621090      0.51112881     -1.32303386
    N      0.01203720     -1.46926566     -1.36541124
    H     -1.30166849      1.63644666     -3.58478376
    H     -0.52644612      2.75507271     -6.80748310
    H     -2.11327090      1.99181507     -7.03890026
    H     -1.78502625      2.92979475     -5.55674521
    C     -0.92761804      0.03888753     -0.02753382
    H      0.52085868     -2.26567076     -1.73609791
    C     -0.24171193     -1.21412714     -0.02771444
    C     -1.34213710      0.61167210      1.18707756
    C      0.04229297     -1.91345629      1.15365551
    H     -1.86588110      1.57125398      1.18488133
    C     -1.02228021     -0.04274701      2.39148496
    H      0.56916563     -2.87174208      1.14997537
    C     -0.38292212     -1.32664565      2.34966947
    C     -1.34313112      0.58819462      3.69959518
    H     -0.22334537     -1.86690968      3.28766949
    C     -0.42329798      0.50424601      4.78479729
    C     -2.56324135      1.27597139      3.86876711
    H      0.51670417     -0.03315518      4.62865015
    C     -0.65679918      1.12605673      6.01470486
    H     -3.29434344      1.31223072      3.05561522
    C     -2.78994305      1.89457964      5.10175866
    H      0.06112331      1.05136744      6.83516681
    C     -1.84627958      1.85892239      6.17354214
    N     -3.85371522      2.63418929      5.60231068
    N     -2.30476802      2.60415981      7.25626073
    H     -4.71186885      2.86368553      5.10975730
    C     -3.52835985      3.00538409      6.90175952
    C     -4.47675579      3.76825212      7.76871483
    H     -3.99733214      3.94077115      8.74169024
    H     -5.41551449      3.21013575      7.93302918
    H     -4.73432467      4.74621193      7.32552988
    C      4.87799154     -0.82058695     -1.16813134
    C      3.91203881     -1.98969153     -1.03923682
    O      3.06207803     -1.73993851      0.08735455
    C      3.05755981     -2.22127318     -2.30494989
    C      3.87730071     -2.59372100     -3.53103369
    O      2.10983787     -3.27093771     -2.06604303
    H      5.38269284     -0.63891028     -0.21325272
    H      4.34399105      0.10013676     -1.42397567
    H      5.64117276     -1.01141134     -1.92643108
    H      4.47205238     -2.89929597     -0.79460328
    H      2.27566225     -1.26329173     -0.23118912
    H      2.46538373     -1.32497391     -2.52162730
    H      4.49344082     -3.47819599     -3.33452834
    H      4.52939937     -1.77385331     -3.84239250
    H      3.21811728     -2.84828138     -4.36816583
    H      2.51804615     -3.90772209     -1.45277910
