51
Energy:    -44.63168687
    H      1.86804687      1.31499236     -0.15922084
    O      1.87353561      1.17546249      0.85428954
    S      0.39740992      0.63518327      1.29494510
    C      0.03781720     -0.54449476     -0.04700230
    O      0.58543515     -0.05733545      2.57805473
    O     -0.59464630      1.73060101      1.17266084
    C      0.60945222     -0.27603942     -1.30980043
    C     -0.82761138     -1.65193566      0.08319768
    N      1.46287624      0.75031188     -1.68157517
    C      0.33914384     -1.11161220     -2.42327271
    C     -1.02138912     -2.49724373     -1.05182190
    C     -1.55447050     -1.99375843      1.33443307
    C      1.72262857      0.57132236     -2.97874304
    N      1.06150900     -0.54632263     -3.46526805
    C     -0.49710484     -2.22762216     -2.31717885
    H     -1.65433768     -3.37824551     -0.91459585
    C     -1.51213636     -3.33154597      1.82227151
    C     -2.32093463     -1.01640774      1.99898131
    C      2.58531837      1.43008868     -3.79063757
    H      1.04901015     -0.85224259     -4.43366402
    H     -0.73778172     -2.86409977     -3.17384558
    H     -0.89265791     -4.06020012      1.29017417
    C     -2.18965667     -3.72074003      2.98148167
    H     -2.39519637      0.00213822      1.60825338
    C     -2.97362103     -1.41039414      3.16855054
    C      3.05289910      1.02647270     -5.05958650
    C      2.95521338      2.69538977     -3.28578429
    H     -2.14852331     -4.75019144      3.34560918
    C     -2.93084423     -2.74691819      3.67261265
    N     -3.76030102     -0.72018071      4.07945120
    H      2.81587898      0.03446847     -5.46009377
    C      3.83354942      1.90244081     -5.82275093
    H      2.58484313      2.99610917     -2.30172904
    C      3.77914987      3.56115022     -4.02258378
    N     -3.68110782     -2.85275600      4.83842949
    H     -3.96213302      0.27613214      4.06062180
    C     -4.14656901     -1.61980638      5.06151265
    H      4.19546664      1.58816672     -6.80545827
    C      4.15027094      3.17645280     -5.33080893
    C      4.25576497      4.86625234     -3.42974356
    C     -4.99343101     -1.21099875      6.22310814
    H      4.69428025      3.88274385     -5.96803795
    H      4.26488705      5.67049629     -4.18322180
    H      3.61704269      5.18537437     -2.59179966
    H      5.28538395      4.76640905     -3.04466554
    H     -5.98990465     -0.86391651      5.89621333
    H     -5.12500909     -2.07931507      6.88265948
    H     -4.52441620     -0.39508029      6.79890164
    O     -0.86987782      0.08429721      4.98239717
    H     -0.22880324      0.00827503      4.26899405
    H     -1.54434858     -0.55132756      4.75508602
