51
Energy:    -44.63167487
    H     -0.89449938      2.10027613     -0.18128975
    O     -0.74912220      2.09028886      0.83136406
    S     -0.52754740      0.53980814      1.29173364
    C      0.53991360     -0.07808863     -0.05009370
    O      0.19888339      0.59578447      2.56863261
    O     -1.80780366     -0.20151832      1.18951827
    C      0.38778355      0.51973727     -1.32011521
    C      1.44185510     -1.15501597      0.08801148
    N     -0.43926267      1.56456184     -1.69996014
    C      1.13933850      0.06457508     -2.43324662
    C      2.21883567     -1.53770598     -1.04786463
    C      1.63302278     -1.92016098      1.34847371
    C     -0.21971195      1.76300660     -3.00171670
    N      0.73036404      0.87516524     -3.48339017
    C      2.05560059     -0.98595933     -2.31972466
    H      2.94827803     -2.33968936     -0.90519188
    C      2.95358102     -2.15315218      1.82940512
    C      0.52164192     -2.45492010      2.02904057
    C     -0.88436218      2.77561148     -3.82254398
    H      1.01936258      0.78532256     -4.45289630
    H      2.62071002     -1.36678166     -3.17560590
    H      3.79196933     -1.70800145      1.28464473
    C      3.20071541     -2.88128640      2.99688924
    H     -0.49276264     -2.31888208      1.64420808
    C      0.77875734     -3.15964147      3.20648546
    C     -0.40133421      3.13041469     -5.10026369
    C     -2.03982135      3.41003636     -3.31746460
    H      4.21861882     -3.05236800      3.35557395
    C      2.09829833     -3.39171090      3.70363771
    N     -0.05424706     -3.77110240      4.13234679
    H      0.51564449      2.68474878     -5.50174715
    C     -1.09965734      4.06710550     -5.87104910
    H     -2.40402939      3.12471761     -2.32654749
    C     -2.71887016      4.38726123     -4.06258894
    N      2.05317796     -4.13132705      4.88014020
    H     -1.07084270     -3.75932151      4.12118844
    C      0.75172496     -4.32420842      5.11594063
    H     -0.72396238      4.34133120     -6.86055380
    C     -2.27490045      4.65120159     -5.37803654
    C     -3.89014867      5.13558878     -3.47095940
    C      0.18313291     -5.05017708      6.29206800
    H     -2.85606789      5.32263977     -6.02011844
    H     -4.68032026      5.30311311     -4.22074967
    H     -4.32983676      4.58978844     -2.62200040
    H     -3.57331526      6.12644860     -3.10193038
    H     -0.36800721     -5.95588276      5.98186196
    H      1.00950226     -5.35216894      6.94949375
    H     -0.51161592     -4.41230236      6.86449783
    O     -0.22671829     -0.76400620      4.99529516
    H     -0.02324762     -0.16311099      4.27195247
    H      0.25130238     -1.56004283      4.77524537
