51
Energy:    -44.45397094
    H     -1.56005082     -0.88544681     -1.46626009
    O     -1.04022064     -0.72021544     -2.33181030
    S      0.05084696      0.45975861     -2.04500245
    C      0.65240960     -0.00992339     -0.38992203
    O      1.10112649      0.29652492     -3.06066661
    O     -0.64560394      1.75964663     -1.88906571
    C     -0.25307845     -0.68768621      0.45519508
    C      1.92686336      0.32739497      0.11438736
    N     -1.54906106     -1.10204550      0.19312360
    C      0.11335076     -1.04317089      1.77823298
    C      2.26996015     -0.10452357      1.43199730
    C      2.93855156      1.10942073     -0.64434823
    C     -1.98547890     -1.69641266      1.30596688
    N     -1.00799695     -1.68219550      2.28945197
    C      1.37683880     -0.74056411      2.29599075
    H      3.28025042      0.12234235      1.78337234
    C      4.27817631      0.63048607     -0.71838282
    C      2.58685635      2.33810950     -1.23675044
    C     -3.31293913     -2.28680521      1.47966764
    H     -1.12171852     -2.01460249      3.24239845
    H      1.66316366     -0.98254450      3.32378965
    H      4.51129398     -0.33621219     -0.26125195
    C      5.27956768      1.32876422     -1.39948263
    H      1.57205449      2.73553731     -1.14816527
    C      3.58894949      3.01480804     -1.93460817
    C     -3.60663667     -3.15090510      2.55616295
    C     -4.32267970     -1.97889660      0.54248983
    H      6.30337764      0.95012804     -1.44947079
    C      4.93375610      2.53964551     -2.02360670
    N      3.58966879      4.19838006     -2.65859489
    H     -2.83295016     -3.44015013      3.27616537
    C     -4.90482024     -3.65081997      2.71095164
    H     -4.08191515     -1.30699671     -0.28609570
    C     -5.61474878     -2.51532372      0.66118879
    N      5.71422941      3.42037190     -2.76415274
    H      2.77988202      4.78280864     -2.84943150
    C      4.87502465      4.38940995     -3.14268361
    H     -5.13073319     -4.32053582      3.54516386
    C     -5.91105631     -3.29526335      1.80183423
    C     -6.65664913     -2.26551136     -0.40368231
    C      5.23705108      5.56649606     -3.98944695
    H     -6.94047063     -3.62781615      1.97667355
    H     -7.65437706     -2.11144506      0.03838504
    H     -6.40803437     -1.38184902     -1.01137184
    H     -6.73079355     -3.12945862     -1.08666602
    H      5.10979245      6.51608136     -3.43955696
    H      6.29041332      5.47309089     -4.28609060
    H      4.61478410      5.61768204     -4.89906214
    O     -1.14765119     -2.36864082      4.94516685
    H     -1.51315451     -1.73350785      5.56863572
    H     -0.70542056     -3.00741906      5.49923763
