51
Energy:    -44.45194749
    H     -1.98878377     -1.04401934      0.56782271
    O     -1.89870772     -0.96171098      1.58360499
    S     -0.31803085     -0.74957968      1.93215476
    C      0.18207425      0.40689481      0.61525247
    O     -0.27694184     -0.10463412      3.25263306
    O      0.42245660     -2.01154118      1.69090700
    C     -0.51452238      0.32640345     -0.61021409
    C      1.25969439      1.31205656      0.72370075
    N     -1.58010707     -0.48859179     -0.95699649
    C     -0.15586671      1.15134436     -1.70652956
    C      1.54409501      2.16286871     -0.38787469
    C      2.12200131      1.43421583      1.92879863
    C     -1.88400351     -0.19113027     -2.22242788
    N     -1.04493784      0.79817761     -2.71248371
    C      0.89336508      2.07199130     -1.61953612
    H      2.34934812      2.89211910     -0.26385740
    C      2.38273474      2.72518948      2.47180794
    C      2.71809573      0.28955516      2.49335988
    C     -2.95408640     -0.81625650     -3.00026192
    H     -1.03536257      1.14795307     -3.66595078
    H      1.19998107      2.69394246     -2.46574554
    H      1.88893462      3.59010346      2.01804230
    C      3.20026578      2.90851054      3.59087469
    H      2.55937231     -0.70062434      2.05750392
    C      3.51301287      0.48192251      3.62482731
    C     -3.41391557     -0.25931714     -4.21275715
    C     -3.53711462     -2.00878511     -2.52001239
    H      3.39179465      3.90424905      3.99814920
    C      3.77413647      1.77086172      4.18398309
    N      4.20311162     -0.39918887      4.44483124
    H     -3.00890244      0.68638959     -4.58993105
    C     -4.40406010     -0.92019739     -4.94896779
    H     -3.17045687     -2.43020658     -1.57983313
    C     -4.56575008     -2.65253615     -3.22625575
    N      4.60606598      1.66210075      5.29271676
    H      4.19823255     -1.41319578      4.37069502
    C      4.82716768      0.35105613      5.43005226
    H     -4.75963524     -0.48725961     -5.88790186
    C     -4.93774014     -2.13108443     -4.48597298
    C     -5.25524718     -3.86766828     -2.65183372
    C      5.64945909     -0.28027294      6.50655745
    H     -5.65406465     -2.67968633     -5.10788065
    H     -5.47634121     -4.61179382     -3.43414798
    H     -4.63976607     -4.35230744     -1.87835916
    H     -6.21570114     -3.58691981     -2.18591798
    H      6.53154256     -0.79958716      6.09119316
    H      5.99689805      0.50741467      7.18856068
    H      5.06487871     -1.01724497      7.08307633
    O     -0.74122409      1.77120222     -5.26304045
    H     -0.83925993      2.63691862     -5.67123659
    H     -0.20818926      1.28189886     -5.88517878
