51
Energy:    -44.44817248
    H      0.80895127      2.13692453     -0.15956421
    O      0.88920587      2.02561251      0.85427544
    S     -0.03004590      0.75017343      1.29388587
    C      0.33825503     -0.42930715     -0.04587157
    O      0.51105014      0.28404841      2.57889503
    O     -1.46569917      1.09945414      1.16750683
    C      0.66381716      0.11247601     -1.30839852
    C      0.24360367     -1.83148827      0.08555611
    N      0.79469288      1.44056268     -1.68123004
    C      0.91219562     -0.73189115     -2.42034333
    C      0.56083201     -2.64096263     -1.04779398
    C     -0.16917875     -2.52115068      1.33644916
    C      1.11350123      1.43693776     -2.97757146
    N      1.19524252      0.14038262     -3.46252417
    C      0.84656410     -2.12480411     -2.31295625
    H      0.53139290     -3.72522664     -0.90950485
    C      0.61573505     -3.60386396      1.82746474
    C     -1.35390846     -2.14207408      1.99752589
    C      1.34728359      2.63109110     -3.79011661
    H      1.35918411     -0.12079607     -4.43022394
    H      1.00700608     -2.78751591     -3.16851363
    H      1.53885315     -3.85954040      1.29803058
    C      0.27061687     -4.30511869      2.98652006
    H     -1.98624405     -1.34135267      1.60431357
    C     -1.67581309     -2.83333950      3.16699010
    C      1.96411763      2.55831497     -5.05739259
    C      0.94160476      3.88632857     -3.28763320
    H      0.88173166     -5.13349336      3.35310581
    C     -0.89128455     -3.91474168      3.67422703
    N     -2.71668697     -2.70295621      4.07505494
    H      2.32602459      1.60394348     -5.45595928
    C      2.12022871      3.72068930     -5.82137573
    H      0.46372534      3.92824305     -2.30485884
    C      1.13919739      5.06458871     -4.02516028
    N     -1.45571434     -4.42236174      4.83911624
    H     -3.44306661     -1.99187114      4.05359260
    C     -2.53373877     -3.66323496      5.05860397
    H      2.59872068      3.66281368     -6.80278382
    C      1.66569227      4.95326493     -5.33190668
    C      0.79925133      6.41277556     -3.43461656
    C     -3.46705749     -3.79923837      6.21792370
    H      1.72093163      5.84249509     -5.96992889
    H      0.35718381      7.08260392     -4.18994912
    H      0.08936199      6.31908734     -2.59841405
    H      1.70630320      6.90868259     -3.04770299
    H     -4.48565459     -4.07188755      5.88866944
    H     -3.09010045     -4.59094203      6.87928798
    H     -3.53857837     -2.86012788      6.79254728
    O     -0.79908633     -0.41166041      4.98159205
    H     -0.99889253     -1.32373902      4.74944964
    H     -0.22130784     -0.11680813      4.28171054
