51
Energy:    -44.43020052
    H      2.08769556     -0.89954929      0.44722836
    O      2.16162607     -1.48870029     -0.38592071
    S      0.65275591     -1.75075915     -0.95130729
    C     -0.09261167     -0.10011440     -0.74742230
    O      0.80626451     -2.09510545     -2.37228116
    O     -0.07556937     -2.66027821     -0.03403614
    C      0.39734216      0.70115791      0.30680818
    C     -1.16712667      0.38471393     -1.52376180
    N      1.41823008      0.43405188      1.20479940
    C     -0.16179884      1.97730755      0.57114213
    C     -1.65637352      1.69989740     -1.25675068
    C     -1.82516550     -0.39327965     -2.60656737
    C      1.50210052      1.49892995      2.00551997
    N      0.56260278      2.45641160      1.65411009
    C     -1.21231935      2.49118958     -0.19591583
    H     -2.45403091      2.07554523     -1.90347349
    C     -2.03595086      0.21855706     -3.87569280
    C     -2.28368822     -1.70242216     -2.36119255
    C      2.45102498      1.64950225      3.10903995
    H      0.38645922      3.32404135      2.15183096
    H     -1.67278699      3.46103036      0.01452517
    H     -1.65113030      1.23050864     -4.03595861
    C     -2.66584291     -0.45258810     -4.92786873
    H     -2.16585616     -2.16483234     -1.37736765
    C     -2.88955594     -2.37153570     -3.42624108
    C      2.68881904      2.89976595      3.71901018
    C      3.14307439      0.50953425      3.57188612
    H     -2.82086110      0.02785085     -5.89699141
    C     -3.09802989     -1.77148727     -4.70635260
    N     -3.40777062     -3.65221924     -3.55392518
    H      2.19715144      3.80889606      3.35513874
    C      3.56686119      2.98638252      4.80560787
    H      2.94838454     -0.45325367      3.09115095
    C      4.06339474      0.59534741      4.62873641
    N     -3.73427512     -2.66150958     -5.56441920
    H     -3.38195519     -4.38085544     -2.84529774
    C     -3.88716891     -3.78006079     -4.84884132
    H      3.75044950      3.95576394      5.27684136
    C      4.20803656      1.83685603      5.28821431
    C      4.87650919     -0.60751418      5.04572790
    C     -4.50211188     -5.04843236     -5.34551195
    H      4.83101635      1.90187905      6.18739293
    H      4.99139111     -0.65509456      6.14078920
    H      4.41136371     -1.54578216      4.70624613
    H      5.89034576     -0.56209431      4.61162947
    H     -5.42265092     -5.29815351     -4.78825688
    H     -4.75934227     -4.92062154     -6.40560200
    H     -3.80771356     -5.90026554     -5.24841816
    O     -0.18403142      4.76997818      2.93250497
    H     -0.18209606      5.70254388      2.69582486
    H     -0.79508518      4.71886607      3.66366900
