51
Energy:    -44.42684444
    H      1.92278914     -1.22511706     -0.21969106
    O      2.17716412     -0.70379794      0.62305549
    S      1.16132342      0.56749962      0.75304086
    C     -0.42483683     -0.19831539      0.28464676
    O      1.17044700      0.95040364      2.17240948
    O      1.47397770      1.56850568     -0.29543573
    C     -0.37406394     -1.28073058     -0.62050155
    C     -1.68647798      0.27074689      0.70960110
    N      0.73179583     -1.89527420     -1.18561774
    C     -1.56352563     -1.90116536     -1.08018684
    C     -2.85242807     -0.42467676      0.26540370
    C     -1.87768959      1.45045118      1.59418739
    C      0.26100340     -2.86626464     -1.97154715
    N     -1.12470529     -2.90331180     -1.93473773
    C     -2.82567453     -1.47076535     -0.65854484
    H     -3.81594308     -0.07677633      0.64779501
    C     -2.73211885      1.34018249      2.72875578
    C     -1.26290886      2.67863412      1.28126995
    C      1.08327016     -3.77563100     -2.77018111
    H     -1.71608964     -3.50970051     -2.49517621
    H     -3.75239201     -1.92058327     -1.02700863
    H     -3.17914255      0.36621023      2.95094003
    C     -2.96825414      2.41755873      3.58769383
    H     -0.64057621      2.78512196      0.38853180
    C     -1.48651478      3.74087201      2.15920393
    C      0.55171555     -4.95362235     -3.33723937
    C      2.44361856     -3.45981139     -2.97608453
    H     -3.62542778      2.31968945      4.45521640
    C     -2.33394821      3.63957544      3.30541533
    N     -1.01952903      5.04708399      2.18630725
    H     -0.48960171     -5.24572579     -3.16119692
    C      1.36321865     -5.76663592     -4.13700600
    H      2.84225694     -2.54333864     -2.53208437
    C      3.27846565     -4.29508658     -3.73544721
    N     -2.38229777      4.85168552      3.98488385
    H     -0.34687037      5.45485224      1.54211366
    C     -1.57152571      5.66345373      3.29912439
    H      0.95013615     -6.67919554     -4.57525682
    C      2.69882540     -5.41366632     -4.37573820
    C      4.75553362     -4.00454581     -3.86102303
    C     -1.26656705      7.08319293      3.65259835
    H      3.30199897     -6.01378218     -5.06631520
    H      5.12278296     -4.22072289     -4.87739717
    H      4.98041288     -2.95209992     -3.62919986
    H      5.33674382     -4.63114790     -3.16250065
    H     -1.61623521      7.78001626      2.87000304
    H     -1.77968024      7.32749892      4.59245123
    H     -0.18326946      7.24331768      3.78699475
    O      1.40231543      3.48727306      3.39058428
    H      0.47180815      3.72765171      3.34503970
    H      1.41669101      2.57001392      3.12785056
