51
Energy:    -44.31758623
    H      1.49531202      1.61861834     -0.58457192
    O      1.73385447      1.60732293      0.41025063
    S      0.56740241      0.77951812      1.19711452
    C      0.27915213     -0.60451159      0.04683476
    O      1.17676440      0.31310092      2.45108381
    O     -0.68298121      1.57637192      1.22229023
    C      0.50347559     -0.35800631     -1.32517403
    C     -0.22067507     -1.86602297      0.43555808
    N      0.96654866      0.79355666     -1.94113837
    C      0.25296669     -1.36169285     -2.29518827
    C     -0.40048459     -2.86295562     -0.57149645
    C     -0.57451067     -2.22245331      1.83502754
    C      1.00775676      0.52916532     -3.24901914
    N      0.58408553     -0.76623014     -3.50469332
    C     -0.22170155     -2.62720952     -1.93573924
    H     -0.73912886     -3.84891480     -0.24161227
    C     -0.08650600     -3.44079950      2.38904740
    C     -1.42801919     -1.38964277      2.58486473
    C      1.43852970      1.46892713     -4.28447480
    H      0.46534939     -1.17985145     -4.42466785
    H     -0.44702553     -3.40126500     -2.67531630
    H      0.58810896     -4.05434624      1.78384242
    C     -0.39905352     -3.84179372      3.69127306
    H     -1.84302122     -0.47462558      2.15343009
    C     -1.71382959     -1.78793482      3.89207277
    C      1.74090546      1.04258493     -5.59541729
    C      1.55160096      2.83741218     -3.95713773
    H     -0.01762671     -4.77859409      4.10475783
    C     -1.22259512     -3.00301024      4.46170899
    N     -2.46281769     -1.20679048      4.90513155
    H      1.70140044     -0.01792979     -5.86818988
    C      2.09907186      1.98469254     -6.56665623
    H      1.31301840      3.15432106     -2.93801157
    C      1.95847171      3.78344239     -4.91147993
    N     -1.67744797     -3.14834424      5.76754700
    H     -2.92037042     -0.29972175      4.86510879
    C     -2.39968922     -2.04899249      6.00498816
    H      2.33351046      1.65283670     -7.58173073
    C      2.15710117      3.34701239     -6.24085994
    C      2.17891391      5.22686914     -4.52439153
    C     -3.08258860     -1.72324763      7.29384104
    H      2.36093544      4.08312302     -7.02663772
    H      1.82897942      5.91253498     -5.31307982
    H      1.65360750      5.47835678     -3.59017414
    H      3.25271598      5.42868507     -4.36758446
    H     -4.17911291     -1.67208356      7.17013708
    H     -2.84963147     -2.51176857      8.02203037
    H     -2.74339519     -0.75442231      7.69826819
    O     -1.95744283      1.57248813      3.91907341
    H     -1.78027109      1.91062400      3.03591187
    H     -1.13961318      1.15159668      4.17324866
