51
Energy:    -44.23433139
    H     -1.46244454     -1.64894650     -0.58524064
    O     -1.70137863     -1.64224661      0.40952949
    S     -0.55208592     -0.79081968      1.19643766
    C     -0.29165917      0.59848910      0.04588603
    O     -1.17102939     -0.33653471      2.45016815
    O      0.71416269     -1.56219943      1.22206480
    C     -0.51065575      0.34717130     -1.32611028
    C      0.18245282      1.86994900      0.43441084
    N     -0.95019783     -0.81367243     -1.94189481
    C     -0.28030380      1.35549348     -2.29631303
    C      0.34226444      2.87007915     -0.57284530
    C      0.52870453      2.23379683      1.83386842
    C     -0.99646957     -0.55047730     -3.24984750
    N     -0.59904642      0.75316673     -3.50574414
    C      0.16857955      2.63044181     -1.93706870
    H      0.66081557      3.86276746     -0.24312709
    C      0.01602533      3.44214788      2.38749445
    C      1.39873264      1.41860657      2.58408300
    C     -1.40791514     -1.49900839     -4.28516741
    H     -0.48850936      1.16888955     -4.42579311
    H      0.37834985      3.40872455     -2.67678445
    H     -0.67073928      4.04177371      1.78200190
    C      0.32011627      3.84969197      3.68968895
    H      1.83225937      0.51207385      2.15295424
    C      1.67614556      1.82290911      3.89125496
    C     -1.71857789     -1.07918172     -5.59627504
    C     -1.49333804     -2.86942432     -3.95752569
    H     -0.08027913      4.77867865      4.10286961
    C      1.16030010      3.02792838      4.46049746
    N      2.43652546      1.25728026      4.90460899
    H     -1.70048519     -0.01814900     -5.86929374
    C     -2.05739800     -2.02857362     -6.56736256
    H     -1.24860793     -3.18119985     -2.93827391
    C     -1.88077674     -3.82371970     -4.91172567
    N      1.61184041      3.18274540      5.76639525
    H      2.91234994      0.35964772      4.86489904
    C      2.35613145      2.09829127      6.00425042
    H     -2.29828835     -1.70176938     -7.58256540
    C     -2.08791466     -3.39171206     -6.24125163
    C     -2.07204466     -5.27122085     -4.52433701
    C      3.04520872      1.78673707      7.29332354
    H     -2.27664266     -4.13198216     -7.02689527
    H     -1.70813758     -5.94985016     -5.31278795
    H     -1.54195532     -5.51180591     -3.58994998
    H     -3.14157591     -5.49468979     -4.36770510
    H      4.14257023      1.75774547      7.16986015
    H      2.79618639      2.57055352      8.02127522
    H      2.72560540      0.81134096      7.69791240
    O      1.99356858     -1.52783879      3.93109575
    H      1.16041514     -1.11369184      4.17612153
    H      1.82914641     -1.87840658      3.05893317
