51
Energy:    -44.21451659
    H     -1.73668192      0.25757613      1.45528894
    O     -0.99800291      0.29909606      2.16192280
    S      0.38771700     -0.21802331      1.47098585
    C      0.28630396      0.57994775     -0.16447359
    O      1.47884859      0.35075165      2.27549371
    O      0.31468231     -1.68004191      1.23384339
    C     -1.00421005      0.81057824     -0.68876088
    C      1.40774382      0.90591493     -0.95722957
    N     -2.23876392      0.55780373     -0.11262912
    C     -1.17541297      1.37762975     -1.97725269
    C      1.18436843      1.52928984     -2.22288046
    C      2.81382141      0.63796200     -0.55485658
    C     -3.15495911      0.94954214     -1.00104367
    N     -2.55155913      1.45282916     -2.14364011
    C     -0.08198464      1.72999942     -2.77493441
    H      2.06782036      1.82046423     -2.79764054
    C      3.78038394      1.67896167     -0.66223707
    C      3.19552657     -0.64775585     -0.12411677
    C     -4.60308730      0.86487586     -0.80962171
    H     -3.03442707      1.75317972     -2.98516379
    H     -0.19861805      2.14110037     -3.78205886
    H      3.44467029      2.66971053     -0.98399946
    C      5.12148206      1.48504716     -0.31854099
    H      2.47028332     -1.46488624     -0.08008100
    C      4.53201696     -0.82333322      0.23931552
    C     -5.50467647      1.55890522     -1.64462423
    C     -5.10529927      0.06498703      0.23949554
    H      5.85301474      2.29218209     -0.40482050
    C      5.50846311      0.21580708      0.14473569
    N      5.23148900     -1.91364072      0.73627470
    H     -5.14363811      2.21900979     -2.44122341
    C     -6.88324782      1.40675183     -1.45608937
    H     -4.39567116     -0.46838077      0.87817991
    C     -6.48546706     -0.05433426      0.46793659
    N      6.75335997     -0.24564549      0.55767557
    H      4.83521909     -2.81812752      0.97835692
    C      6.54682215     -1.51524021      0.92107118
    H     -7.58050751      1.94544541     -2.10347191
    C     -7.36867353      0.56816403     -0.44289720
    C     -7.00874418     -0.82584784      1.65657482
    C      7.58640101     -2.43957249      1.46741229
    H     -8.44703189      0.39436708     -0.35462558
    H     -7.91435168     -1.39798738      1.39743701
    H     -6.25535547     -1.52877843      2.04419452
    H     -7.27849486     -0.13998874      2.47828090
    H      7.75303151     -3.30300307      0.79882578
    H      8.53001521     -1.88605376      1.56489691
    H      7.29982918     -2.83090627      2.45835652
    O      2.82955372     -3.07851315      2.06842870
    H      3.03666489     -2.21199923      2.43168974
    H      1.89933350     -3.02582003      1.86223999
