51
Energy:    -43.80438085
    H     -1.42729872      0.78953455      1.60761258
    O     -2.11964869      0.20795483      1.12894928
    S     -1.49100330     -0.24017370     -0.30945671
    C      0.23005313     -0.61526514      0.15856163
    O     -2.21349806     -1.45750595     -0.70620539
    O     -1.43685383      0.92952798     -1.21936594
    C      0.77233825      0.10399518      1.24579915
    C      1.06266643     -1.51491589     -0.54124380
    N      0.16316600      1.04341737      2.06209635
    C      2.12018682     -0.08563455      1.64381146
    C      2.39455253     -1.71507035     -0.06544699
    C      0.63732406     -2.26967502     -1.74962268
    C      1.08858532      1.43272095      2.94197975
    N      2.28767158      0.77161296      2.72278948
    C      2.96081217     -0.98638388      0.98196127
    H      3.00534615     -2.45447380     -0.59064476
    C      0.87747781     -3.67229788     -1.81617560
    C      0.05281662     -1.59390558     -2.83865560
    C      0.88087975      2.42239433      3.99947254
    H      3.15743892      0.94241565      3.21863744
    H      4.01044549     -1.12166433      1.25922665
    H      1.31759944     -4.16689621     -0.94469212
    C      0.51919035     -4.43463848     -2.93185518
    H     -0.09558041     -0.51083978     -2.81486941
    C     -0.32281080     -2.36893967     -3.93744730
    C      1.79075437      2.56974517      5.06820305
    C     -0.26161661      3.24953377      3.94265349
    H      0.70830185     -5.51019545     -2.97013099
    C     -0.09553950     -3.77785328     -4.01171183
    N     -0.94726423     -2.05376586     -5.13566405
    H      2.66467747      1.91528062      5.16089383
    C      1.57791775      3.56506058      6.02903749
    H     -0.95777985      3.12566153      3.10839728
    C     -0.51000041      4.21733864      4.92903335
    N     -0.55610772     -4.28303964     -5.22245113
    H     -1.30133302     -1.13882398     -5.40258471
    C     -1.07475415     -3.22915657     -5.86035502
    H      2.28343311      3.67770512      6.85670002
    C      0.46636893      4.41382671      5.93166556
    C     -1.78754191      5.02335524      4.91728797
    C     -1.72597333     -3.26538967     -7.20504968
    H      0.35185833      5.23931277      6.64322307
    H     -1.60570669      6.06930548      5.21316808
    H     -2.25531990      5.02275747      3.92072468
    H     -2.51946947      4.60402116      5.62919385
    H     -1.16846637     -2.66015525     -7.94204580
    H     -1.74950985     -4.30645397     -7.55422752
    H     -2.75913471     -2.88039489     -7.16514251
    O     -2.28224612      0.35602436     -4.18419344
    H     -2.10112400      1.01380230     -3.50579610
    H     -2.61628098     -0.39279595     -3.69604504
