51
Energy:    -43.69955840
    H     -2.06829328      0.90882332      0.37508005
    O     -1.59587653      1.74840005      0.03064524
    S      0.01364951      1.48719657      0.10954174
    C      0.12061424     -0.23725699     -0.47062071
    O      0.62264375      2.41372388     -0.85584894
    O      0.45253991      1.48520014      1.52603044
    C     -0.98775819     -1.07282554     -0.21210621
    C      1.26119428     -0.79608629     -1.08635685
    N     -2.19549442     -0.75975919      0.39064470
    C     -0.96835113     -2.44204699     -0.58078626
    C      1.20972222     -2.16462257     -1.49234216
    C      2.51937011     -0.04494804     -1.33843207
    C     -2.91214066     -1.88600279      0.40274977
    N     -2.20452247     -2.92801265     -0.17725707
    C      0.13996624     -3.01636473     -1.21153004
    H      2.08445184     -2.56281254     -2.01379382
    C      3.11755858     -0.09996646     -2.63017412
    C      3.14077426      0.66836507     -0.29471406
    C     -4.26226542     -2.01860448      0.95089750
    H     -2.50997602     -3.89529588     -0.22820098
    H      0.18055410     -4.07734925     -1.47529410
    H      2.59796070     -0.64936947     -3.42137092
    C      4.30976378      0.56778932     -2.92517068
    H      2.71266929      0.68056268      0.71136563
    C      4.31790623      1.35096820     -0.60701246
    C     -5.07129077     -3.14034596      0.66992949
    C     -4.76254660     -0.99407143      1.78320560
    H      4.75802562      0.51815131     -3.92048390
    C      4.92224358      1.31079359     -1.90137229
    N      5.15297242      2.16792078      0.14148800
    H     -4.72591784     -3.93164414     -0.00477172
    C     -6.33664578     -3.24867388      1.25839934
    H     -4.12467427     -0.13108301      1.99377831
    C     -6.05003752     -1.06991428      2.33809389
    N      6.08866038      2.06736211     -1.91874815
    H      4.99868407      2.45963596      1.10316745
    C      6.18547705      2.57922587     -0.68781069
    H     -6.96247369     -4.11806901      1.03940725
    C     -6.80020240     -2.24836991      2.12438619
    C     -6.61575842      0.07897691      3.13929418
    C      7.26806417      3.49363451     -0.21297919
    H     -7.75749061     -2.38083785      2.64101520
    H     -7.20109255     -0.28142510      4.00075535
    H     -5.81897004      0.73915125      3.51513073
    H     -7.29111592      0.69222240      2.51785133
    H      7.86151627      3.03319492      0.59701834
    H      7.93734665      3.71069183     -1.05633029
    H      6.85718909      4.44385823      0.16845568
    O      2.88337048      4.22969032     -0.82072888
    H      2.01618064      3.82714446     -0.92861123
    H      3.49182504      3.53307473     -1.05548360
