51
Energy:    -43.54089619
    H      1.92231757     -0.96602750      0.83736110
    O      2.53988252     -0.74551941      0.05206388
    S      1.60720672     -0.47944106     -1.26107898
    C      0.24429247      0.48933451     -0.53602129
    O      2.41711895      0.33972361     -2.17448877
    O      1.01732908     -1.75855225     -1.72474689
    C     -0.07448015      0.23881134      0.81642692
    C     -0.54754538      1.40655047     -1.25993543
    N      0.53849848     -0.62151142      1.71311413
    C     -1.15475959      0.90847570      1.44540622
    C     -1.58646625      2.09936852     -0.56638543
    C     -0.36697728      1.69645651     -2.70703828
    C     -0.12717554     -0.50097566      2.86398434
    N     -1.15976230      0.41673111      2.74358965
    C     -1.94190598      1.83795587      0.75801029
    H     -2.15369098      2.84299174     -1.13286544
    C     -0.30337111      3.05077734     -3.14432922
    C     -0.31448973      0.64264369     -3.64032794
    C      0.17903495     -1.23199792      4.09391425
    H     -1.84623862      0.63329217      3.46009894
    H     -2.79609004      2.34035103      1.22155716
    H     -0.32992505      3.84310963     -2.38979464
    C     -0.15417539      3.38930561     -4.49244392
    H     -0.40647443     -0.39854413     -3.31925825
    C     -0.14121423      0.99170402     -4.98094328
    C     -0.36040947     -0.84802337      5.34024176
    C      1.03680017     -2.35099960      4.02492101
    H     -0.10599776      4.43227822     -4.81483814
    C     -0.06673358      2.34621288     -5.43034663
    N     -0.00713437      0.23430259     -6.13565782
    H     -0.99639936      0.03957073      5.43162325
    C     -0.08088717     -1.60836509      6.48168942
    H      1.44680108     -2.63834650      3.05265458
    C      1.36317624     -3.09049140      5.17292647
    N      0.09114101      2.39405848     -6.81093071
    H      0.03692228     -0.78035493     -6.18318804
    C      0.14108609      1.11517522     -7.19635010
    H     -0.49914122     -1.30938085      7.44664433
    C      0.73087310     -2.74764344      6.38940664
    C      2.36448481     -4.21961236      5.10674486
    C      0.33091416      0.64089449     -8.60085218
    H      0.87871379     -3.37971605      7.27228905
    H      2.06032647     -5.06461475      5.74555599
    H      2.48570791     -4.59099011      4.07750313
    H      3.35516640     -3.88307740      5.45840267
    H     -0.54696997      0.07449996     -8.95974310
    H      0.47100936      1.51604753     -9.24952350
    H      1.21441264     -0.01369401     -8.69129739
    O     -3.15855852      1.03594960      4.56215211
    H     -3.74403554      0.37065818      4.93672385
    H     -3.50220724      1.86064848      4.89737937
