51
Energy:    -43.37147668
    H      0.74274039     -2.15067906     -0.19102823
    O     -0.25218232     -2.38724221     -0.16155484
    S     -1.06946479     -1.06136558      0.32745081
    C     -0.20478039      0.24842185     -0.59912772
    O     -2.44784608     -1.23426411     -0.15366990
    O     -0.80308039     -0.80966044      1.76437561
    C      1.15851012      0.03300720     -0.89666685
    C     -0.79143010      1.47935075     -0.96381959
    N      1.94750503     -1.07300839     -0.62433884
    C      1.92201531      1.02227061     -1.56710455
    C      0.00232383      2.41929217     -1.68965003
    C     -2.19085381      1.86032599     -0.63636250
    C      3.16206117     -0.79495121     -1.10359929
    N      3.18794329      0.46453719     -1.68319838
    C      1.36047815      2.24173160     -1.95906999
    H     -0.48685031      3.34418970     -2.00728537
    C     -3.03002978      2.38171874     -1.66270907
    C     -2.66282636      1.75729315      0.68686543
    C      4.31915804     -1.68775968     -1.03355740
    H      4.01054032      0.92686904     -2.05885431
    H      1.94428806      3.02552710     -2.45073817
    H     -2.63559972      2.43132768     -2.68240603
    C     -4.34815322      2.77600980     -1.41500130
    H     -2.01270533      1.39959908      1.48999468
    C     -3.98796458      2.13120783      0.91776263
    C      5.47685811     -1.46576500     -1.80958441
    C      4.27013346     -2.79842648     -0.16367129
    H     -4.98186101      3.17381628     -2.21137775
    C     -4.84199784      2.64669605     -0.10551841
    N     -4.77847827      2.12072681      2.05792852
    H      5.52854686     -0.63575536     -2.52307531
    C      6.57931661     -2.31697616     -1.67109318
    H      3.36751111     -2.95795287      0.43281443
    C      5.35199590     -3.68668483     -0.05478256
    N     -6.09664487      2.94819323      0.41234864
    H     -4.50665113      1.76418554      2.97046253
    C     -6.02846887      2.60442870      1.70221801
    H      7.47534653     -2.14401282     -2.27332244
    C      6.53612510     -3.38599340     -0.76513368
    C      5.24928127     -4.92971308      0.79741665
    C     -7.14661844      2.71399922      2.68778325
    H      7.43144781     -3.99771896     -0.60688359
    H      6.19341301     -5.13200112      1.32875062
    H      4.44503869     -4.84123671      1.54395587
    H      5.02886063     -5.81301715      0.17327110
    H     -6.90414331      3.42362605      3.49890690
    H     -8.04108878      3.07570400      2.16301048
    H     -7.37577911      1.73889445      3.15026794
    O     -3.18099435     -0.07041368      3.49650528
    H     -2.26105193     -0.32706476      3.38016029
    H     -3.62389373     -0.45128678      2.74193532
