51
Energy:    -43.21300066
    H      0.14811439     -0.30814900      2.26423725
    O      0.82774007      0.45512839      2.21713554
    S      1.21969959      0.68261508      0.64881047
    C     -0.40968866      0.51527779     -0.15047807
    O      1.72240869      2.06075237      0.55223324
    O      2.04522031     -0.45182240      0.16856454
    C     -1.35023088     -0.33028752      0.47713140
    C     -0.75257121      1.11368983     -1.38201312
    N     -1.23538446     -1.03438610      1.66498723
    C     -2.62328245     -0.56031776     -0.10381162
    C     -2.06768509      0.89893033     -1.89652147
    C      0.17551769      1.95669585     -2.18123076
    C     -2.38995848     -1.68404051      1.82948947
    N     -3.25774150     -1.42260102      0.77995718
    C     -2.99712130      0.03686735     -1.31197571
    H     -2.32952415      1.41348240     -2.82512013
    C     -0.27254353      3.21822234     -2.66830986
    C      1.46513654      1.48707504     -2.49847755
    C     -2.71062602     -2.55769023      2.95855745
    H     -4.16962322     -1.84901823      0.64514586
    H     -3.96419891     -0.15422064     -1.78647890
    H     -1.27418857      3.55852094     -2.38773532
    C      0.54471203      4.04836429     -3.44111754
    H      1.80265270      0.50149479     -2.16631282
    C      2.28085730      2.33468701     -3.25032234
    C     -4.03325422     -2.97135409      3.22558898
    C     -1.66425897     -2.99581198      3.79870703
    H      0.18918254      5.01426921     -3.80810182
    C      1.84568770      3.60610807     -3.73645083
    N      3.58885986      2.22006967     -3.69864385
    H     -4.87096181     -2.61527091      2.61558262
    C     -4.28541104     -3.84926052      4.28617950
    H     -0.64394469     -2.66879039      3.57964847
    C     -1.91393541     -3.83653011      4.89512880
    N      2.85744607      4.22228346     -4.46439236
    H      4.22695309      1.45611198     -3.49143457
    C      3.88926780      3.37466301     -4.40549834
    H     -5.31066492     -4.16848590      4.49213008
    C     -3.22969412     -4.31763225      5.08085912
    C     -0.80499569     -4.21300674      5.84929391
    C      5.23279367      3.60209244     -5.01935263
    H     -3.42727720     -5.06511959      5.85743983
    H     -0.89202128     -5.26302006      6.17258876
    H      0.18601370     -4.07399491      5.39045722
    H     -0.84265095     -3.58647009      6.75726027
    H      5.45455803      2.85182867     -5.79923136
    H      5.24225222      4.59876423     -5.48070919
    H      6.03638357      3.55190129     -4.26505818
    O      4.50651848      0.39296544     -1.62525614
    H      4.18898750      1.15180081     -1.12621410
    H      4.04647523     -0.34738113     -1.23686565
