51
Energy:    -43.18982665
    H      0.74898325      0.64747371     -2.11722185
    O      1.59840557      0.92055835     -1.61661373
    S      1.27421900      0.87872248     -0.01718295
    C      0.28417323     -0.64678161      0.10288644
    O      2.57237224      0.72671417      0.65586803
    O      0.37082300      1.99887632      0.34086740
    C     -0.48052160     -1.00799327     -1.02771604
    C      0.18099761     -1.43380933      1.27005659
    N     -0.55822800     -0.38705580     -2.26397830
    C     -1.32102629     -2.14992572     -1.00299478
    C     -0.63260259     -2.60704864      1.22613362
    C      0.86913056     -1.11473837      2.54889347
    C     -1.41371191     -1.10748961     -2.99286471
    N     -1.89739116     -2.18443081     -2.26542535
    C     -1.42552440     -2.95953100      0.13263959
    H     -0.65732707     -3.23006983      2.12438320
    C      1.60450888     -2.13469053      3.21849806
    C      0.74855536      0.16803726      3.11832678
    C     -1.79917380     -0.81273486     -4.37323595
    H     -2.60759994     -2.83953374     -2.57843917
    H     -2.09159935     -3.82634443      0.17606351
    H      1.69128162     -3.11432246      2.73827960
    C      2.25717337     -1.90362224      4.43295700
    H      0.15019410      0.94469262      2.63418914
    C      1.42425958      0.39431922      4.31888385
    C     -2.46448122     -1.76243465     -5.17772669
    C     -1.49547729      0.45782629     -4.90814603
    H      2.81869731     -2.69450971      4.93618545
    C      2.17259008     -0.61817785      4.99494313
    N      1.55911331      1.51941794      5.11948821
    H     -2.67737719     -2.77013740     -4.80373809
    C     -2.85984777     -1.41791821     -6.47547424
    H     -0.98084058      1.18467521     -4.27347232
    C     -1.84357550      0.79560717     -6.22572628
    N      2.72279740     -0.11601289      6.16896538
    H      1.19462522      2.44613875      4.91438588
    C      2.35141137      1.16756729      6.20181852
    H     -3.37477435     -2.15488955     -7.09772006
    C     -2.59767628     -0.13484889     -6.97589928
    C     -1.42048948      2.11712648     -6.82280076
    C      2.72194586      2.14919593      7.26610815
    H     -2.98073640      0.14997502     -7.96230401
    H     -2.21280716      2.54244820     -7.45994684
    H     -1.17421908      2.85215930     -6.04111498
    H     -0.52459312      1.99017432     -7.45495726
    H      1.83153422      2.51563585      7.80756442
    H      3.38732654      1.65160599      7.98441643
    H      3.24455397      3.02490950      6.84510635
    O      0.67279402      3.83221353      3.90935278
    H      1.08151051      3.63005889      3.06213124
    H     -0.04237565      4.42292162      3.68530746
