51
Energy:    -44.63163855
    H      1.17774303      1.94565961     -0.26736767
    O      1.29204369      1.84350131      0.74416633
    S      0.17921910      0.77086415      1.26961560
    C      0.24918332     -0.48541055     -0.04896276
    O      0.69535377      0.24047357      2.53988992
    O     -1.17222504      1.37785955      1.20462083
    C      0.59869926     -0.04116240     -1.34278508
    C     -0.09484806     -1.84241556      0.13138085
    N      0.95127446      1.23106647     -1.76358244
    C      0.62533865     -0.94099788     -2.43852932
    C      0.00460169     -2.72122704     -0.99029875
    C     -0.55785131     -2.41598949      1.42265849
    C      1.19177671      1.14004440     -3.07355444
    N      1.00622576     -0.15939059     -3.52071833
    C      0.31016360     -2.29481172     -2.28393699
    H     -0.21646584     -3.77788441     -0.81645008
    C      0.04000696     -3.61467814      1.90759662
    C     -1.61402717     -1.80916389      2.13016202
    C      1.59633848      2.25200762     -3.93422488
    H      1.06546116     -0.46749925     -4.48668635
    H      0.29816486     -2.99427689     -3.12507402
    H      0.86948089     -4.04882470      1.34075646
    C     -0.36381096     -4.21420800      3.10416214
    H     -2.10872016     -0.91369842      1.74410576
    C     -1.99264877     -2.40296502      3.33563408
    C      2.11816047      2.03833813     -5.22798535
    C      1.45735962      3.57139757     -3.45195833
    H      0.10348907     -5.13347812      3.46558175
    C     -1.39402997     -3.59994063      3.83674278
    N     -2.93983281     -2.06178022      4.29032530
    H      2.27537973      1.02490120     -5.61384115
    C      2.44333080      3.13456636     -6.03526654
    H      1.05047666      3.72274278     -2.44820941
    C      1.82762695      4.67610400     -4.23541976
    N     -1.97705287     -3.96839360      5.04403425
    H     -3.52277633     -1.22880233      4.28293003
    C     -2.88289327     -3.01766269      5.29333107
    H      2.84794884      2.96745756     -7.03717716
    C      2.25151116      4.44048442     -5.56281630
    C      1.77515202      6.07651504     -3.67149751
    C     -3.75973276     -2.95266520      6.50185531
    H      2.43432033      5.28986555     -6.23063852
    H      1.42302543      6.80016777     -4.42446139
    H      1.10749878      6.13454407     -2.79809795
    H      2.77804273      6.40364904     -3.34659357
    H     -4.82775067     -3.03850660      6.23305243
    H     -3.49915705     -3.78599903      7.16815032
    H     -3.62506955     -2.00431376      7.04933259
    O     -0.56626666     -0.15272993      5.02435529
    H      0.01322215      0.01603493      4.27508155
    H     -0.94246087     -1.00936899      4.83661229
