51
Energy:    -44.63161753
    H      1.86036370      1.31209467     -0.24821639
    O      1.90917317      1.17956733      0.76507337
    S      0.45292879      0.64374284      1.27229169
    C      0.03541487     -0.54484050     -0.04479668
    O      0.69529724     -0.04006937      2.55094895
    O     -0.54274403      1.73922720      1.18500658
    C      0.55260406     -0.28565953     -1.33275420
    C     -0.82436036     -1.65053606      0.13004007
    N      1.38998465      0.73729024     -1.74786082
    C      0.23430315     -1.12865146     -2.42779672
    C     -1.06713026     -2.50348434     -0.98973982
    C     -1.49717406     -1.98301576      1.41360384
    C      1.59381481      0.54909471     -3.05368957
    N      0.91173537     -0.57126010     -3.50367705
    C     -0.59735719     -2.24311007     -2.27823371
    H     -1.69419099     -3.38291763     -0.81941387
    C     -1.43484917     -3.31743936      1.90846066
    C     -2.23383254     -1.00037119      2.10356757
    C      2.42149025      1.40141317     -3.90773442
    H      0.85756572     -0.88385334     -4.46850093
    H     -0.87492368     -2.88526493     -3.11936449
    H     -0.83920615     -4.05033904      1.35539155
    C     -2.06234224     -3.69797185      3.09830160
    H     -2.32410291      0.01551993      1.70931450
    C     -2.83607385     -1.38564780      3.30272742
    C      2.83402104      0.98859507     -5.19271246
    C      2.81349348      2.66982262     -3.42798768
    H     -2.00631640     -4.72492065      3.46747400
    C     -2.77261090     -2.71869625      3.81376489
    N     -3.58256283     -0.68841186      4.24167163
    H      2.57941799     -0.00592871     -5.57580086
    C      3.58183097      1.85852928     -5.99467866
    H      2.48581299      2.97768579     -2.43108409
    C      3.60567263      3.52969067     -4.20539691
    N     -3.47231356     -2.81576491      5.01135409
    H     -3.78436954      0.30793753      4.22458532
    C     -3.92699088     -1.58086329      5.24560079
    H      3.90111513      1.53712906     -6.98977942
    C      3.92016210      3.13561048     -5.52561401
    C      4.10809294      4.83840730     -3.64259357
    C     -4.72305009     -1.16323684      6.43953583
    H      4.43683294      3.83696592     -6.19044917
    H      4.08545140      5.63741581     -4.40133844
    H      3.50605969      5.16391672     -2.78029746
    H      5.15319757      4.74025381     -3.30128550
    H     -5.73238694     -0.81747966      6.15321939
    H     -4.82681730     -2.02684945      7.11013231
    H     -4.22927080     -0.34380258      6.98903150
    O     -0.65557310      0.11951884      5.01438939
    H     -0.04570620      0.03797298      4.27471876
    H     -1.33958067     -0.51701544      4.82059118
