51
Energy:    -44.61028770
    H     -0.14521447      2.25283158     -0.38445167
    O     -0.52637138      2.24175274      0.56491584
    S     -0.94665715      0.70466849      0.91953938
    C      0.45638519     -0.21776060      0.21076101
    O     -0.95721686      0.61540487      2.38692703
    O     -2.14550284      0.31917965      0.13644529
    C      1.10227187      0.35297893     -0.90753268
    C      0.87856609     -1.48673798      0.66220723
    N      0.85415859      1.56278300     -1.53583191
    C      2.16835301     -0.32194038     -1.55485326
    C      1.99476551     -2.09917466      0.01460769
    C      0.22920465     -2.22942107      1.77464085
    C      1.72862115      1.65024906     -2.54072887
    N      2.54312582      0.52887922     -2.58576032
    C      2.62105982     -1.57006718     -1.11521473
    H      2.33771601     -3.05779041      0.41343070
    C      1.03720410     -2.78084873      2.81026551
    C     -1.16488786     -2.43143982      1.77394973
    C      1.82597477      2.77081244     -3.47654187
    H      3.24122090      0.33206202     -3.29671760
    H      3.42259649     -2.11545174     -1.62216802
    H      2.11452339     -2.58930279      2.78765339
    C      0.48949366     -3.50574311      3.87272276
    H     -1.78842438     -2.04983378      0.96080888
    C     -1.70347953     -3.13598628      2.85221236
    C      2.94660286      2.94137991     -4.31729655
    C      0.76671213      3.70201350     -3.53581465
    H      1.12032193     -3.92301150      4.66138858
    C     -0.90411473     -3.68567630      3.90152728
    N     -3.00503511     -3.47568765      3.19214774
    H      3.80165196      2.25813339     -4.26512150
    C      2.97263531      3.99926951     -5.23345531
    H     -0.09617145      3.55722552     -2.87973587
    C      0.80604030      4.79491418     -4.41633007
    N     -1.70302440     -4.34520872      4.82888175
    H     -3.84521380     -3.19995766      2.69034823
    C     -2.95281122     -4.18387010      4.38324987
    H      3.84170595      4.13041382     -5.88382705
    C      1.89055118      4.88663099     -5.31777346
    C     -0.28140592      5.84324348     -4.39685223
    C     -4.18515524     -4.69391431      5.05762818
    H      1.88616834      5.66271617     -6.09141846
    H     -0.52987536      6.18370280     -5.41517015
    H     -1.20067798      5.46169064     -3.92641488
    H      0.04232323      6.72999909     -3.82480946
    H     -4.71275561     -5.43537257      4.43139860
    H     -3.89363317     -5.17685976      6.00000421
    H     -4.89227766     -3.87695118      5.28075400
    O     -2.84244056     -0.49841640      4.15446316
    H     -2.16887597      0.00233519      3.68408183
    H     -2.52873158     -1.39884554      4.11685949
