51
Energy:    -44.47571313
    H     -0.39518240     -2.19628199      0.62277965
    O     -0.40347772     -2.04968097      1.63527228
    S      0.39905549     -0.66303851      1.94862377
    C     -0.20943647      0.40856661      0.60580212
    O     -0.08320987     -0.20258475      3.25885599
    O      1.84958746     -0.85822383      1.71002647
    C     -0.57491027     -0.22094265     -0.60400819
    C     -0.26315881      1.81711250      0.67966942
    N     -0.58535940     -1.57056153     -0.91764127
    C     -1.00801053      0.54110975     -1.71880382
    C     -0.76226079      2.53602844     -0.44923363
    C      0.17102215      2.60250382      1.86516694
    C     -1.00851213     -1.65923775     -2.18066593
    N     -1.27587742     -0.40217028     -2.70144725
    C     -1.09140668      1.93621025     -1.66602412
    H     -0.84409650      3.62204423     -0.35180859
    C     -0.68785192      3.61339343      2.38467781
    C      1.44150022      2.38509025      2.43342991
    C     -1.17229401     -2.90658754     -2.92778039
    H     -1.54761862     -0.20359292     -3.65970491
    H     -1.39575122      2.53885459     -2.52689647
    H     -1.67448647      3.74274880      1.92900528
    C     -0.32956387      4.39882145      3.48422612
    H      2.12553886      1.64183427      2.01476454
    C      1.77879040      3.15851696      3.54570842
    C     -1.89594847     -2.95795230     -4.13834013
    C     -0.58739267     -4.08637129     -2.41916786
    H     -0.99791142      5.17068320      3.87357427
    C      0.92178560      4.16886457      4.08138134
    N      2.89915059      3.18322775      4.36374411
    H     -2.39495941     -2.06753600     -4.53684218
    C     -1.98239948     -4.16308987     -4.84496922
    H     -0.02830880     -4.03216817     -1.48084049
    C     -0.71093887     -5.31065618     -3.09529569
    N      1.51957113      4.78629213      5.17438713
    H      3.69689342      2.55572925      4.30389424
    C      2.69082605      4.16026369      5.32550067
    H     -2.54377896     -4.20145024     -5.78243792
    C     -1.35275417     -5.31559509     -4.35435277
    C     -0.17335734     -6.58604170     -2.49005946
    C      3.69536707      4.44883301      6.39378344
    H     -1.35975804     -6.23287950     -4.95384777
    H      0.27759798     -7.23618277     -3.25724711
    H      0.58804072     -6.37825931     -1.72256061
    H     -0.98354964     -7.16070332     -2.00868493
    H      4.64597474      4.81656822      5.96787045
    H      3.28736188      5.22296968      7.05751394
    H      3.91966523      3.54955577      6.99230392
    O     -1.85728581      0.37051667     -5.27214031
    H     -1.13444096      0.47543426     -5.89838916
    H     -2.59247984      0.81001490     -5.69277202
