51
Energy:    -44.47299196
    H      0.80582715     -1.50635482      1.56497995
    O      0.39249591     -1.07282322      2.39438313
    S      0.07057485      0.48742778      2.03799900
    C     -0.58854381      0.33458081      0.34567208
    O     -0.97421904      0.91161749      2.98127776
    O      1.33832193      1.24932814      1.93125549
    C     -0.10517377     -0.73527300     -0.43871318
    C     -1.48329568      1.25485345     -0.24157688
    N      0.78307627     -1.74059323     -0.09188600
    C     -0.52354992     -0.89825033     -1.78387815
    C     -1.92074463      1.01437929     -1.57992497
    C     -1.99997183      2.46557705      0.44976321
    C      0.92121656     -2.50947940     -1.17442206
    N      0.14557214     -2.03341481     -2.22067932
    C     -1.42571871     -0.01386957     -2.38388494
    H     -2.65343848      1.71053379     -1.99723495
    C     -3.39890713      2.73422955      0.43364318
    C     -1.10830092      3.36484677      1.06664486
    C      1.77252574     -3.69637554     -1.26065557
    H      0.13005018     -2.40796704     -3.16460924
    H     -1.73481027     -0.11019116     -3.42891678
    H     -4.06350753      2.00490817     -0.03986989
    C     -3.94473468      3.86509804      1.04803942
    H     -0.02909599      3.19011938      1.04649417
    C     -1.66666558      4.47801769      1.69767291
    C      1.64891429     -4.62414195     -2.31694090
    C      2.74216225     -3.91276517     -0.25782629
    H     -5.01989161      4.05934150      1.02911664
    C     -3.06901122      4.75302566      1.69614663
    N     -1.10847663      5.52123064      2.42233272
    H      0.87899431     -4.50433374     -3.08734742
    C      2.51990008     -5.71764985     -2.38607271
    H      2.82811987     -3.18535087      0.55423942
    C      3.58724988     -5.03347206     -0.29142640
    N     -3.33577667      5.93102377      2.38490105
    H     -0.12681108      5.62045661      2.66772416
    C     -2.14446628      6.35269677      2.82028185
    H      2.42261406     -6.43583679     -3.20473561
    C      3.51235370     -5.89211516     -1.41138113
    C      4.54758887     -5.31211368      0.84083721
    C     -1.90727370      7.57735697      3.64341616
    H      4.23847798     -6.70588283     -1.51805682
    H      5.50914010     -5.69917647      0.46637411
    H      4.74719645     -4.40537376      1.43238985
    H      4.13283509     -6.07206656      1.52554147
    H     -1.28367988      8.31328981      3.10506720
    H     -2.87736881      8.04020887      3.86919835
    H     -1.39942897      7.33527811      4.59248283
    O      0.07205657     -2.78069854     -4.86259891
    H      0.74538683     -2.43898259     -5.45888455
    H     -0.59978824     -3.12487396     -5.44635214
