51
Energy:    -59.10531473
    H     -3.91494570      2.55756887      0.74362817
    O     -3.09664199      2.95127811      1.11804780
    S     -2.35535514      1.70711248      1.97110329
    C     -1.15653169      1.10624080      0.75658916
    O     -3.39747288      0.68820617      2.21096691
    O     -1.65422939      2.38600692      3.07444867
    C     -0.83696046      1.97043241     -0.30430485
    C     -0.58350826     -0.19730519      0.91060861
    H     -1.29876068      2.95532295     -0.37864303
    C      0.08754096      1.49177460     -1.23418379
    C      0.30165185     -0.65413505     -0.08322190
    C     -0.87567287     -1.09308678      2.06592163
    N      0.63621903      2.03678382     -2.38171301
    C      0.68336077      0.20130927     -1.12618848
    H      0.71993304     -1.66114471     -0.01023972
    C     -1.36352483     -2.40675692      1.81596720
    C     -0.61689732     -0.66523695      3.38205070
    H      0.45926477      2.96935666     -2.74439757
    C      1.51447851      1.09585421     -2.91082336
    N      1.60064437      0.00482328     -2.14181689
    H     -1.54945263     -2.69945977      0.77815898
    C     -1.60824963     -3.31510344      2.84841205
    H     -0.20076917      0.32585167      3.58080105
    C     -0.91906950     -1.56431726      4.40940292
    C      2.24623341      1.29846819     -4.16517194
    H     -1.98448329     -4.32118545      2.64558399
    C     -1.35760587     -2.90068496      4.16821167
    N     -0.88799338     -1.45092203      5.79169298
    C      2.07245289      2.44961484     -4.96279260
    C      3.15588384      0.30089304     -4.58082793
    N     -1.46891022     -3.60227433      5.36465795
    H     -0.66725270     -0.61030283      6.31958872
    C     -1.29497158     -2.66860133      6.31844518
    H      1.37805233      3.24368371     -4.67109502
    C      2.79832084      2.58942337     -6.15269104
    H      3.27458378     -0.58144651     -3.94597973
    C      3.88944728      0.43272505     -5.77033329
    C     -1.50390739     -2.86979990      7.78378949
    H      2.66196395      3.48277932     -6.76781943
    C      3.69642160      1.58995541     -6.55618059
    C      4.86258874     -0.64288627     -6.19629691
    H     -2.29492773     -2.20566732      8.17495152
    H     -1.80851520     -3.91137609      7.95412480
    H     -0.58206147     -2.67029315      8.35697634
    H      4.25469601      1.70942015     -7.49055304
    H      4.37041493     -1.37162090     -6.86599146
    H      5.71774305     -0.21771942     -6.74703210
    H      5.25039695     -1.20168553     -5.33044348
    O     -5.22168497      1.62974693      0.28577290
    H     -5.10795090      0.88054361      0.87861264
    H     -6.02398607      1.42783624     -0.18977416
