51
Energy:    -59.09653985
    H      4.19359030     -1.51566948      1.59292729
    O      3.99418729     -0.57778152      1.80605309
    S      3.49397905      0.11032987      0.35641437
    C      1.69471582      0.00142328      0.51152780
    O      3.97170560     -0.78551907     -0.71640715
    O      3.92137310      1.51679840      0.45142286
    C      1.17699802     -0.18440089      1.80454237
    C      0.87436755      0.10695774     -0.65774599
    H      1.84207447     -0.25777826      2.66540477
    C     -0.21251782     -0.26877068      1.90758836
    C     -0.51695252     -0.03933114     -0.50698448
    C      1.41657400      0.36268485     -2.02271808
    N     -1.06743381     -0.44513686      2.98132930
    C     -1.07113677     -0.17243126      0.77380831
    H     -1.16086071     -0.00437068     -1.38931888
    C      1.09840694     -0.54301222     -3.07375973
    C      2.18350637      1.51500646     -2.27998375
    H     -0.79442775     -0.51662112      3.95749665
    C     -2.36677103     -0.44807743      2.48297186
    N     -2.39637657     -0.23036385      1.16355218
    H      0.49834633     -1.42518422     -2.83088152
    C      1.52934592     -0.33583108     -4.38612156
    H      2.39577960      2.23880451     -1.48879637
    C      2.65544086      1.68111849     -3.58566006
    C     -3.54756387     -0.66750921      3.32409372
    H      1.28073876     -1.03857355     -5.18564611
    C      2.29893543      0.80897234     -4.65740208
    N      3.49908081      2.61841671     -4.16384142
    C     -3.44987106     -0.94709684      4.70388496
    C     -4.82368592     -0.59325168      2.72293788
    N      2.81417825      1.27820518     -5.86174646
    H      3.98558846      3.36769083     -3.67810527
    C      3.62295258      2.29411847     -5.50746653
    H     -2.47822184     -1.01015353      5.20363156
    C     -4.61274872     -1.14881391      5.45841446
    H     -4.87441674     -0.37425247      1.65283941
    C     -5.99485606     -0.79170843      3.47086396
    C      4.56194193      3.01840034     -6.41580775
    H     -4.53358341     -1.36438039      6.52721048
    C     -5.87425825     -1.07555656      4.84886374
    C     -7.35221768     -0.70291933      2.81126187
    H      5.60991903      2.91065419     -6.08425421
    H      4.47080404      2.59325316     -7.42458164
    H      4.33199911      4.09688964     -6.46199370
    H     -6.77539384     -1.23929088      5.44898017
    H     -7.68839075     -1.70045336      2.47407718
    H     -8.11490365     -0.31877335      3.50847560
    H     -7.32868372     -0.04748922      1.92683464
    O      4.47857694     -3.01545876      0.92395849
    H      4.45831486     -2.78596175     -0.01018314
    H      4.68185110     -3.94780149      0.92803856
