51
Energy:    -59.09570696
    H      0.65359602      4.67722240     -0.34262807
    O      0.10356713      4.40000853      0.42251159
    S     -1.04351404      3.34857531     -0.21298111
    C     -0.28431087      1.74246540      0.12949589
    O     -1.07796481      3.60005965     -1.66806969
    O     -2.22737273      3.53651721      0.64317452
    C      0.72272619      1.70987893      1.10891587
    C     -0.72280319      0.58321733     -0.58826339
    H      1.02211290      2.61950076      1.63021303
    C      1.30027685      0.46416796      1.36017352
    C     -0.07093883     -0.63817360     -0.33691094
    C     -1.83080122      0.60340546     -1.58549246
    N      2.29339319      0.04527785      2.22801971
    C      0.90052164     -0.71766956      0.67066583
    H     -0.35889130     -1.52845376     -0.90156889
    C     -1.58431585      0.12275725     -2.90246940
    C     -3.11714961      1.03711819     -1.21210650
    H      2.78191708      0.62685514      2.90304361
    C      2.45595380     -1.32462527      2.04475628
    N      1.58987628     -1.81549108      1.15138934
    H     -0.57069997     -0.20647910     -3.15041350
    C     -2.58980291      0.06466575     -3.87022307
    H     -3.32643655      1.36639725     -0.19098198
    C     -4.10058055      1.02637068     -2.20601499
    C      3.46514644     -2.11460610      2.75705432
    H     -2.38941802     -0.30472818     -4.87932466
    C     -3.87867916      0.49761214     -3.51274380
    N     -5.41667401      1.46463497     -2.22531276
    C      4.38930516     -1.53028319      3.64926192
    C      3.50497659     -3.50929995      2.53652627
    N     -5.05792168      0.50805166     -4.25124098
    H     -5.89946407      1.94618836     -1.47095138
    C     -5.92447140      1.20152589     -3.48973256
    H      4.38654682     -0.45366811      3.84602922
    C      5.33246473     -2.33458040      4.30182994
    H      2.77833112     -3.93953890      1.84188549
    C      4.44478986     -4.32400619      3.18723570
    C     -7.28294847      1.65836585     -3.91069135
    H      6.04639566     -1.87888122      4.99298975
    C      5.36377515     -3.71821212      4.07181276
    C      4.46872556     -5.81568027      2.94284970
    H     -7.36607914      2.75936105     -3.88438782
    H     -7.46232865      1.32049753     -4.94042372
    H     -8.07116482      1.24493747     -3.25805212
    H      6.10867450     -4.33522924      4.58504647
    H      5.17478327     -6.06686130      2.13034087
    H      4.79384845     -6.36618211      3.84096319
    H      3.47753282     -6.19148420      2.64508745
    O      1.36876444      4.98288764     -1.81677930
    H      0.69683120      4.62319272     -2.40399755
    H      2.02989901      5.33241752     -2.40951023
