51
Energy:    -58.82287574
    H     -3.72983533     -2.81400557      0.76541227
    O     -3.83219985     -1.90173698      1.11484826
    S     -2.42381201     -1.59705015      1.98016188
    C     -1.43937054     -0.69999405      0.75564796
    O     -1.81590604     -2.91319372      2.26288160
    O     -2.84434795     -0.68092097      3.05426748
    C     -2.13177544     -0.13762159     -0.33005996
    C     -0.02152055     -0.59183886      0.92686088
    H     -3.21327540     -0.24543025     -0.41683629
    C     -1.35829589      0.54923163     -1.26731820
    C      0.71912451      0.06358455     -0.07402176
    C      0.70849451     -1.13649701      2.10709751
    N     -1.67206437      1.21851561     -2.43715336
    C      0.05550528      0.68204055     -1.14284714
    H      1.80692025      0.12296425      0.01274505
    C      1.78651721     -2.04169927      1.89571652
    C      0.37346773     -0.71550171      3.40814940
    H     -2.60488647      1.35409092     -2.81663627
    C     -0.48412715      1.71770041     -2.96276320
    N      0.56190369      1.45418139     -2.17186423
    H      2.01467262     -2.34166045      0.86845881
    C      2.54597501     -2.54905451      2.95247596
    H     -0.42389316      0.01297550      3.57684312
    C      1.10504021     -1.27401479      4.46075135
    C     -0.41250860      2.44224661     -4.23548139
    H      3.37087197     -3.24506344      2.77924618
    C      2.22083058     -2.14011444      4.25765224
    N      0.98916766     -1.17092834      5.83933639
    C     -1.54410222      2.64257168     -5.05456792
    C      0.83771277      2.95501919     -4.64706468
    N      2.82782248     -2.44840247      5.47116752
    H      0.26356679     -0.66827505      6.34419682
    C      1.99289420     -1.94767660      6.40061811
    H     -2.52879364      2.26135050     -4.76668215
    C     -1.41618254      3.34225325     -6.26137000
    H      1.69988217      2.78842103     -3.99548661
    C      0.97571810      3.65929497     -5.85345108
    C      2.09194895     -2.17370666      7.87386879
    H     -2.29491837      3.49641077     -6.89312930
    C     -0.16821405      3.84382794     -6.66052220
    C      2.32086100      4.20553305     -6.27488144
    H      1.19595356     -2.68680312      8.26593674
    H      2.96901581     -2.80440537      8.07300156
    H      2.20442674     -1.22363655      8.42419736
    H     -0.08080608      4.38545280     -7.60814890
    H      2.85219300      3.48086890     -6.91856473
    H      2.21419231      5.13900216     -6.85161553
    H      2.96499697      4.40661228     -5.40481823
    O     -3.29245758     -4.36592314      0.34767646
    H     -3.37522721     -5.20348128     -0.11852688
    H     -2.56115564     -4.50551357      0.94459520
