51
Energy:    -58.82282290
    H      4.41304803      1.50041296      0.83061465
    O      4.20801266      0.61672602      1.20727880
    S      2.75343801      0.81006467      2.02702922
    C      1.56683185      0.23045067      0.79038763
    O      2.59222381      2.26089360      2.25246075
    O      2.82882082     -0.15241114      3.13959551
    C      2.07144969     -0.56310494     -0.25368101
    C      0.18508094      0.58746403      0.91128378
    H      3.13234490     -0.80985474     -0.30278187
    C      1.14421770     -1.00058725     -1.20096189
    C     -0.69926496      0.16691552     -0.09914795
    C     -0.36338257      1.37973103      2.04883985
    N      1.25833133     -1.77744164     -2.34042726
    C     -0.24034082     -0.66992389     -1.12596557
    H     -1.75059272      0.46153174     -0.05155347
    C     -1.08811443      2.57360692      1.77383059
    C     -0.21633888      0.92171440      3.37202348
    H      2.10833218     -2.21784618     -2.68114329
    C     -0.01227246     -1.88968627     -2.89685618
    N     -0.93956154     -1.27688184     -2.15271259
    H     -1.18018159      2.89289974      0.73130207
    C     -1.67307690      3.33543921      2.78790972
    H      0.30047679     -0.01669504      3.58930276
    C     -0.75838355      1.72292065      4.38165812
    C     -0.27798680     -2.59946542     -4.15205236
    H     -2.22625206      4.25174060      2.56591649
    C     -1.53163613      2.89214653      4.11453028
    N     -0.71900140      1.63879685      5.76582655
    C      0.75133897     -3.18081386     -4.92280488
    C     -1.61500205     -2.70049119     -4.59654534
    N     -2.04030828      3.42250917      5.29608354
    H     -0.20681097      0.94946012      6.31036015
    C     -1.43546707      2.71561469      6.26880000
    H      1.79811046     -3.12401585     -4.60837135
    C      0.43850811     -3.84664084     -6.11490399
    H     -2.39551766     -2.24332304     -3.98218578
    C     -1.93886649     -3.36742957     -5.78848621
    C     -1.49661399      3.01527247      7.73093380
    H      1.23816216     -4.29659806     -6.70917069
    C     -0.89311972     -3.93732847     -6.54718637
    C     -3.37621900     -3.47016579     -6.24548951
    H     -0.49435404      3.22910062      8.14269286
    H     -2.13019336      3.90005341      7.88066981
    H     -1.92261784      2.17181848      8.30124257
    H     -1.12392217     -4.45695100     -7.48298371
    H     -3.62953402     -2.63779486     -6.92723003
    H     -3.55893483     -4.40923983     -6.79332150
    H     -4.07409572     -3.42280821     -5.39514878
    O      4.50783198      3.09431531      0.35654565
    H      4.86737032      3.84381705     -0.12789147
    H      3.84403332      3.48208248      0.92188445
