51
Energy:    -58.81485917
    H      0.35602163      4.71114928      0.30704961
    O      0.83206107      4.31787066     -0.45684592
    S      1.73198600      3.05160149      0.18491376
    C      0.64800320      1.64078695     -0.14349549
    O      1.82399686      3.30073958      1.63790317
    O      2.92583249      2.97764402     -0.67479947
    C     -0.34633904      1.81551367     -1.12084040
    C      0.83288595      0.42018892      0.58263729
    H     -0.44760259      2.76409760     -1.64878853
    C     -1.17599960      0.71898368     -1.36120749
    C     -0.06423258     -0.63680124      0.34211465
    C      1.92331703      0.21204563      1.57770987
    N     -2.23835521      0.51408768     -2.22394974
    C     -1.03386230     -0.51567300     -0.66307794
    H      0.03011079     -1.56373857      0.91328935
    C      1.58492020     -0.19562068      2.89888426
    C      3.27113215      0.36004595      1.19862373
    H     -2.59460074      1.18113213     -2.90268815
    C     -2.68736326     -0.78869836     -2.02956275
    N     -1.94217015     -1.44564259     -1.13387557
    H      0.52536949     -0.30034773      3.15122242
    C      2.55846050     -0.45871297      3.86528362
    H      3.54205801      0.62987049      0.17455591
    C      4.23325762      0.14809183      2.19084146
    C     -3.84366637     -1.35165995     -2.73379664
    H      2.28767791     -0.76971519      4.87763060
    C      3.90863747     -0.31188110      3.50210523
    N      5.61244581      0.29711464      2.20433740
    C     -4.62577550     -0.59105313     -3.62896118
    C     -4.17787634     -2.70445028     -2.50216759
    N      5.06573710     -0.54657804      4.23840531
    H      6.18387302      0.65964171      1.44533406
    C      6.05713520     -0.05848376      3.46989780
    H     -4.39522724      0.45896122     -3.83424727
    C     -5.72038565     -1.18158257     -4.27347077
    H     -3.55674649     -3.27401434     -1.80543270
    C     -5.27141955     -3.30584791     -3.14474220
    C      7.48305433      0.10264875      3.88481941
    H     -6.32367465     -0.58981271     -4.96694883
    C     -6.04388964     -2.52530197     -4.03245554
    C     -5.61060115     -4.75660403     -2.88851665
    H      7.79789958      1.16067947      3.84965609
    H      7.59014286     -0.25801266      4.91687387
    H      8.16332291     -0.47347121      3.23407642
    H     -6.90453072     -2.97388678     -4.53946895
    H     -6.35110941     -4.84619218     -2.07279521
    H     -6.04822837     -5.23213399     -3.78166764
    H     -4.72075358     -5.33205378     -2.58954695
    O     -0.27859350      5.17642954      1.77509432
    H     -0.85875238      5.67289860      2.36044391
    H      0.29241685      4.69574726      2.36964603
