51
Energy:    -58.81401447
    H     -4.53235433      1.34324206     -0.26373190
    O     -4.32293766      0.77371909      0.50867100
    S     -3.47119462     -0.53175670     -0.12015710
    C     -1.76157039     -0.01648786      0.17130817
    O     -3.75935557     -0.55811909     -1.56859843
    O     -3.81463225     -1.65568527      0.76792013
    C     -1.55482777      0.99425149      1.12530631
    C     -0.69870956     -0.63960103     -0.55901153
    H     -2.39652537      1.43815376      1.65755711
    C     -0.23086770      1.38243783      1.33727823
    C      0.61238562     -0.17429760     -0.34824354
    C     -0.90879453     -1.75236448     -1.52862733
    N      0.35294850      2.31884514      2.17226685
    C      0.86081036      0.79479088      0.63380465
    H      1.43565950     -0.60488320     -0.92371740
    C     -0.42785368     -1.60860126     -2.86063110
    C     -1.52196818     -2.95055793     -1.11563031
    H     -0.13245875      2.90340535      2.84696246
    C      1.72699894      2.26912004      1.95742086
    N      2.06083671      1.32054848      1.07542975
    H      0.04403481     -0.66159994     -3.13955718
    C     -0.54446515     -2.63124058     -3.80484325
    H     -1.85471094     -3.08653081     -0.08329575
    C     -1.68267604     -3.94480216     -2.08555680
    C      2.67632122      3.16222307      2.62903250
    H     -0.17312817     -2.50986552     -4.82575899
    C     -1.15763768     -3.83237853     -3.40769962
    N     -2.31410979     -5.17986774     -2.06423951
    C      2.25881700      4.18226828      3.51035821
    C      4.05554504      2.98668500      2.37939668
    N     -1.36267451     -5.01164973     -4.11719192
    H     -2.84477433     -5.56873654     -1.28885753
    C     -2.16030438     -5.74769933     -3.32112184
    H      1.19897832      4.34598572      3.72890702
    C      3.21095066      5.00670766      4.12357121
    H      4.35512099      2.18919270      1.69390031
    C      5.01741960      3.80620877      2.99062179
    C     -2.82597109     -7.03019999     -3.69986832
    H      2.88421750      5.79540070      4.80641067
    C      4.57773609      4.82422016      3.86488046
    C      6.48954097      3.59984100      2.71555815
    H     -3.92601948     -6.94578393     -3.64926732
    H     -2.54336146     -7.27983872     -4.73161117
    H     -2.52038845     -7.85801360     -3.03692800
    H      5.31167412      5.47805653      4.34740192
    H      6.82469805      4.24290750      1.88134282
    H      7.10374962      3.85682164      3.59423539
    H      6.70494279      2.55734067      2.43422360
    O     -4.76325832      2.07247499     -1.74332633
    H     -5.02856187      2.78001855     -2.33889004
    H     -4.52729437      1.35569451     -2.32740403
