51
Energy:    -58.70156155
    H     -4.04995995     -2.43089122     -0.37937714
    O     -3.62736027     -2.21148315     -1.23849740
    S     -3.27342132     -0.57057573     -1.15301016
    C     -1.53729046     -0.60573225     -0.64518869
    O     -4.11364292     -0.01926833     -0.07051221
    O     -3.37948791     -0.09961345     -2.54469634
    C     -0.83893286     -1.80826322     -0.84684417
    C     -0.94284106      0.56337561     -0.06975258
    H     -1.33445098     -2.67230435     -1.29034133
    C      0.49868414     -1.82040526     -0.44794025
    C      0.39266773      0.48220830      0.36582651
    C     -1.66374106      1.85828565      0.09162949
    N      1.48268301     -2.79267951     -0.48447787
    C      1.13459713     -0.68401582      0.13188619
    H      0.85602619      1.34767915      0.84604848
    C     -1.73680891      2.45248160      1.38306213
    C     -2.21314500      2.51182617     -1.02785972
    H      1.38575228     -3.72718644     -0.87157765
    C      2.63926238     -2.23498667      0.05213079
    N      2.46872494     -0.94930291      0.37935893
    H     -1.29530435      1.91176791      2.22567261
    C     -2.35094791      3.68875505      1.59610498
    H     -2.12337912      2.08452304     -2.02999500
    C     -2.87385084      3.72132308     -0.79187028
    C      3.88482750     -2.98803116      0.22932994
    H     -2.40302117      4.13550333      2.59239628
    C     -2.90702812      4.35156111      0.48799897
    N     -3.60013732      4.56763635     -1.61698348
    C      3.98840989     -4.36000775     -0.08449790
    C      5.01588786     -2.30692869      0.73151704
    N     -3.52875536      5.59363454      0.40548341
    H     -3.82517196      4.40391408     -2.59504045
    C     -4.03340048      5.63395257     -0.84168048
    H      3.13363492     -4.91929697     -0.47741052
    C      5.20439166     -5.02889470      0.10594262
    H      4.91192882     -1.24407706      0.96642964
    C      6.23928918     -2.96778389      0.92381263
    C     -4.95578697      6.68066956     -1.37549291
    H      5.28147553     -6.09150706     -0.13895338
    C      6.31965063     -4.34185752      0.60843872
    C      7.44063391     -2.22097138      1.45713329
    H     -5.92410560      6.24803764     -1.68368385
    H     -5.14115688      7.42013574     -0.58460180
    H     -4.52295833      7.19604201     -2.25024808
    H      7.26326693     -4.87723911      0.75659015
    H      7.49784416     -2.30859309      2.55751023
    H      8.38097608     -2.62480347      1.04720497
    H      7.38868571     -1.14813189      1.21491266
    O     -4.73478778     -2.45420779      1.14390108
    H     -5.01786766     -2.82924219      1.98349323
    H     -4.86055803     -1.51503048      1.25671868
