51
Energy:    -59.10528128
    H      3.61387924      2.96234028      0.76508156
    O      3.74114378      2.06298216      1.13894879
    S      2.32739875      1.72954652      1.98470506
    C      1.39940496      0.76883345      0.76440717
    O      1.66834310      3.02975539      2.22306727
    O      2.75834707      0.85511764      3.08901646
    C      2.13244337      0.20529970     -0.29367288
    C     -0.01690953      0.61464561      0.91134041
    H      3.21101809      0.34925616     -0.36257942
    C      1.40219396     -0.53098536     -1.22807703
    C     -0.71418912     -0.09061143     -0.08681523
    C     -0.78878195      1.16143148      2.06362994
    N      1.76230940     -1.21678859     -2.37476653
    C     -0.00828605     -0.71078984     -1.12717364
    H     -1.80074831     -0.18640698     -0.01924057
    C     -1.89340534      2.02247394      1.80942718
    C     -0.46509154      0.78413135      3.38085624
    H      2.70664211     -1.32833413     -2.73300990
    C      0.60321281     -1.77032791     -2.91024324
    N     -0.46686807     -1.52503155     -2.14610934
    H     -2.11150474      2.28925446      0.77089417
    C     -2.69094416      2.52796455      2.83866820
    H      0.35376160      0.08866949      3.58268127
    C     -1.23647460      1.34162089      4.40519973
    C      0.58222530     -2.52749129     -4.16569979
    H     -3.53608550      3.18990218      2.63259375
    C     -2.37763154      2.16245781      4.15953005
    N     -1.14441816      1.27604002      5.78786916
    C      1.73614810     -2.70729929     -4.95795495
    C     -0.64089020     -3.09405955     -4.58804903
    N     -3.01897210      2.47825674      5.35328603
    H     -0.41182996      0.81177080      6.31872661
    C     -2.18562913      2.03004608      6.31055126
    H      2.70100192     -2.28456353     -4.66100952
    C      1.65672858     -3.44002468     -6.14921271
    H     -1.52110633     -2.94244179     -3.95727440
    C     -0.73023476     -3.83172246     -5.77896841
    C     -2.32171481      2.28794554      7.77558967
    H      2.55266972     -3.57814714     -6.76017316
    C      0.43522604     -3.99502519     -6.55937238
    C     -2.04682926     -4.43532861     -6.21212836
    H     -1.45216335      2.84180728      8.17170888
    H     -3.22408089      2.89177864      7.94232910
    H     -2.41177900      1.34805669      8.34711692
    H      0.38561914     -4.56214218     -7.49473940
    H     -2.59031933     -3.74571890     -6.88357231
    H     -1.89616264     -5.37808866     -6.76337064
    H     -2.70065856     -4.63804165     -5.34970812
    O      3.12474396      4.48838944      0.30684939
    H      2.37318355      4.60470621      0.89619423
    H      3.17606436      5.31489018     -0.16734755
