51
Energy:    -56.57690293
    H      4.07530610     -0.94816158      2.24932673
    O      3.45957035     -0.37240420      2.75350024
    S      2.99791343      0.83358282      1.67756986
    C      1.42247866      0.18503140      1.06875515
    O      4.00447345      0.83474978      0.59657514
    O      2.75990062      2.01240089      2.52820719
    C      0.79910123     -0.80636960      1.84526892
    C      0.87236312      0.69009627     -0.15337102
    H      1.25636111     -1.15857482      2.77028778
    C     -0.41428382     -1.29828839      1.36132304
    C     -0.32528932      0.12243848     -0.62591125
    C      1.50126735      1.78284105     -0.94893453
    N     -1.29871308     -2.25182250      1.83404240
    C     -1.00106356     -0.83007246      0.14953577
    H     -0.74341504      0.46147035     -1.57700655
    C      1.80348388      1.55316045     -2.32083759
    C      1.73842330      3.04228922     -0.36604230
    H     -1.21104528     -2.76952424      2.70401037
    C     -2.35333668     -2.32655113      0.92914977
    N     -2.22295646     -1.44057630     -0.06442640
    H      1.60181086      0.56045572     -2.73454678
    C      2.34462470      2.54907912     -3.13707201
    H      1.46894669      3.24134413      0.67447704
    C      2.33205683      4.01280312     -1.17894328
    C     -3.46393240     -3.27365057      1.06874854
    H      2.57456053      2.36166842     -4.18916456
    C      2.58997782      3.81091645     -2.56785816
    N      2.78919192      5.29710950     -0.92177677
    C     -3.51913087     -4.22370337      2.11080891
    C     -4.51143481     -3.22472770      0.12231564
    N      3.07384941      4.97836648     -3.15011988
    H      2.80928473      5.75603296     -0.01456867
    C      3.29056468      5.80642649     -2.11134121
    H     -2.72671899     -4.28908929      2.86289474
    C     -4.60505167     -5.10466732      2.19428063
    H     -4.44738890     -2.47955261     -0.67534169
    C     -5.60483482     -4.10169345      0.19864061
    C      3.98507029      7.12718121     -2.17944344
    H     -4.64514550     -5.83886099      3.00323868
    C     -5.63760996     -5.04807624      1.24615309
    C     -6.71938283     -4.03084407     -0.82025688
    H      4.89581647      7.13843223     -1.55477728
    H      4.27580384      7.31639817     -3.22172553
    H      3.33146708      7.94821210     -1.83759973
    H     -6.47886557     -5.74506972      1.32020098
    H     -6.52886191     -4.72827738     -1.65636007
    H     -7.68951987     -4.30890363     -0.37654299
    H     -6.81034262     -3.02069344     -1.24883130
    O      4.91904245     -1.82039237      1.16115529
    H      5.01083693     -2.71420602      0.81710453
    H      4.97477617     -1.26773341      0.38522885
