51
Energy:    -55.93483895
    H      1.86562385     -3.24633556     -2.91484658
    O      1.03039811     -2.84369757     -3.23903573
    S     -0.04007937     -2.94057193     -1.94680846
    C      0.12621328     -1.29170316     -1.22096582
    O      0.50534485     -3.96220616     -1.03002608
    O     -1.36412244     -3.07988811     -2.57716309
    C      0.68047421     -0.29005773     -2.03579724
    C     -0.30264379     -1.06334034      0.12634336
    H      0.99148341     -0.51178100     -3.05702546
    C      0.80434297      0.97591326     -1.46093641
    C     -0.10574850      0.21649550      0.67693711
    C     -0.94475882     -2.10850821      0.97360095
    N      1.28985506      2.18157253     -1.93587822
    C      0.39485530      1.25253631     -0.12386329
    H     -0.38633051      0.40459139      1.71628675
    C     -0.37593338     -2.41597324      2.24171328
    C     -2.12980504     -2.73969062      0.54993809
    H      1.63595786      2.35859560     -2.87471829
    C      1.16217748      3.11456151     -0.91124364
    N      0.57509529      2.59128471      0.17072673
    H      0.54460285     -1.90110295      2.53293762
    C     -0.95536483     -3.34614436      3.10771957
    H     -2.59798256     -2.47817029     -0.40260478
    C     -2.66837646     -3.70906808      1.40161537
    C      1.62530869      4.50092913     -1.02701197
    H     -0.50939688     -3.57613726      4.07885697
    C     -2.13725950     -3.98690496      2.69663948
    N     -3.74034876     -4.57968154      1.26948820
    C      2.28833062      4.98164677     -2.17629413
    C      1.39394666      5.37899067      0.05505528
    N     -2.93749901     -4.90746318      3.36618357
    H     -4.32328813     -4.69214383      0.44391269
    C     -3.81670509     -5.32604991      2.43694097
    H      2.48279857      4.33064479     -3.03431722
    C      2.70945773      6.31653988     -2.23107860
    H      0.87742319      4.98426775      0.93428353
    C      1.81013529      6.71879472      0.00890180
    C     -4.78036081     -6.45641258      2.59510826
    H      3.22204360      6.68595124     -3.12318396
    C      2.47650173      7.17780744     -1.14836225
    C      1.54886059      7.64526316      1.17456932
    H     -4.59211891     -7.25537084      1.85617411
    H     -4.66189247     -6.87901583      3.60211012
    H     -5.82441873     -6.12091720      2.47048112
    H      2.81437487      8.21797588     -1.20207785
    H      2.41078957      7.65474512      1.86650033
    H      1.38848586      8.68245537      0.83711227
    H      0.66689412      7.32775547      1.75221802
    O      3.12624374     -3.82283545     -2.06827566
    H      3.98345533     -3.64488642     -1.66924881
    H      2.76295933     -4.52325987     -1.53159133
