51
Energy:    -55.13653815
    H     -3.94893773      2.55727417     -0.32794268
    O     -3.16932882      3.05554442      0.00183709
    S     -2.51242488      2.09851965      1.21745990
    C     -1.20484352      1.22833086      0.31953370
    O     -3.57308701      1.15370323      1.62246827
    O     -1.91799083      3.06098762      2.16093728
    C     -0.78624256      1.79003274     -0.89854398
    C     -0.64962385      0.02578177      0.86443442
    H     -1.23842305      2.70898465     -1.27251617
    C      0.22148799      1.10600019     -1.58050409
    C      0.32497848     -0.65500756      0.11172120
    C     -1.04985444     -0.54084202      2.18401236
    N      0.87615765      1.34265568     -2.77645887
    C      0.80374655     -0.09550337     -1.08117536
    H      0.73394871     -1.59670868      0.48628273
    C     -1.51273306     -1.88544498      2.24719680
    C     -0.91599443      0.22479860      3.35793397
    H      0.73469456      2.14213576     -3.38749471
    C      1.79982759      0.31727672     -2.95556170
    N      1.81253157     -0.53018516     -1.92077140
    H     -1.60021630     -2.44565610      1.31135484
    C     -1.85416519     -2.49539828      3.45645569
    H     -0.51987972      1.24307663      3.32440793
    C     -1.31413326     -0.37896096      4.55462351
    C      2.64662926      0.20006045     -4.14681956
    H     -2.21018723     -3.52823700      3.49366464
    C     -1.72875430     -1.74194168      4.63671467
    N     -1.41337256      0.09530837      5.85453511
    C      2.54943072      1.09582148     -5.23296026
    C      3.59082837     -0.84929125     -4.19915543
    N     -1.95269430     -2.10604706      5.96086653
    H     -1.24287441      1.05042656      6.15903571
    C     -1.86886519     -0.95013312      6.64537047
    H      1.83108752      1.92151048     -5.22619968
    C      3.38426326      0.93487327     -6.34626135
    H      3.64868119     -1.53004826     -3.34541780
    C      4.43328058     -1.01764056     -5.30926839
    C     -2.21505333     -0.76321908      8.08640688
    H      3.30698029      1.63101872     -7.18558838
    C      4.31581666     -0.11338020     -6.38746709
    C      5.44161501     -2.14341519     -5.34507561
    H     -3.03903218     -0.03898860      8.21424296
    H     -2.53494850     -1.73023290      8.49778548
    H     -1.35120167     -0.39734247      8.66781948
    H      4.95971358     -0.23071644     -7.26531843
    H      5.01431557     -3.03460976     -5.84001745
    H      6.34509818     -1.85763704     -5.90847066
    H      5.74579742     -2.44474248     -4.33066498
    O     -5.46420336      1.63181152     -0.51447127
    H     -5.58180614      1.27719864      0.37216241
    H     -6.15003884      1.20819799     -1.02513874
