51
Energy:    -54.71267317
    H      0.70920835     -0.90869844     -4.59812657
    O      0.21273236     -0.07980328     -4.42131479
    S     -1.00273040     -0.51150950     -3.34361444
    C     -0.25618058     -0.05248539     -1.76082285
    O     -1.14185576     -1.97890888     -3.43899358
    O     -2.11363213      0.40323517     -3.65823411
    C      0.82130885      0.84848350     -1.80230271
    C     -0.77396012     -0.60575071     -0.54545795
    H      1.17986879      1.24433295     -2.75284623
    C      1.38799006      1.19108478     -0.57348711
    C     -0.13264230     -0.27113154      0.66145649
    C     -1.95372529     -1.51565140     -0.49284722
    N      2.43440945      2.02453880     -0.21955656
    C      0.91046054      0.66545876      0.66249341
    H     -0.48265886     -0.71290914      1.59776571
    C     -1.81884458     -2.78689948      0.13320509
    C     -3.19789404     -1.09879338     -1.00322896
    H      2.98577493      2.59470778     -0.85473247
    C      2.55161366      1.98020543      1.16642458
    N      1.60935363      1.21127023      1.72322679
    H     -0.83466965     -3.07086212      0.51798416
    C     -2.89595081     -3.66653878      0.26360009
    H     -3.32157055     -0.10707104     -1.44607423
    C     -4.25392990     -2.01112934     -0.91641110
    C      3.59387107      2.69870228      1.90626902
    H     -2.78114151     -4.64132235      0.74475268
    C     -4.14386432     -3.26518199     -0.24439657
    N     -5.55745768     -1.98188726     -1.39023620
    C      4.59605216      3.45206664      1.25849422
    C      3.58534165      2.62908926      3.31710965
    N     -5.37522895     -3.91232056     -0.21194931
    H     -5.97059071     -1.25123752     -1.96426847
    C     -6.16558823     -3.16964406     -1.00911543
    H      4.63255069      3.53006406      0.16743544
    C      5.56762630      4.11773103      2.01692919
    H      2.79853076      2.04037762      3.79668470
    C      4.55320386      3.29428930      4.08598521
    C     -7.54143870     -3.53752231     -1.45974842
    H      6.34207326      4.70114698      1.51203441
    C      5.55013336      4.03812804      3.41752990
    C      4.52482890      3.21274883      5.59526816
    H     -7.59745008     -3.62530268     -2.55927119
    H     -7.80605578     -4.50845893     -1.01936123
    H     -8.28697009     -2.78792422     -1.14283889
    H      6.31772160      4.55974025      3.99866931
    H      5.16131601      2.38305533      5.95342016
    H      4.90467905      4.13932706      6.05627970
    H      3.50565957      3.03087811      5.97019606
    O      1.61494301     -2.25612042     -4.61576152
    H      0.93506344     -2.93662815     -4.63507500
    H      2.41971570     -2.73896933     -4.44314101
