51
Energy:    -53.93785063
    H      4.23410618      0.38380909      2.10187388
    O      3.47062540      0.56650415      2.69224461
    S      2.50529262      1.65203327      1.84671688
    C      1.28553230      0.54148036      1.10366508
    O      3.36336699      2.24523466      0.80099490
    O      1.86782680      2.46859198      2.89395860
    C      1.15461674     -0.73518899      1.67587614
    C      0.50963833      0.98664384     -0.01487326
    H      1.76734506     -1.02866098      2.52865583
    C      0.21127160     -1.58109170      1.09018035
    C     -0.38849601      0.07698750     -0.60290476
    C      0.60417140      2.35995837     -0.58724002
    N     -0.19142625     -2.87589143      1.36628557
    C     -0.58292249     -1.18558782     -0.02552455
    H     -0.96167265      0.37886885     -1.48306963
    C      0.89230300      2.51304638     -1.97279054
    C      0.35404788      3.48644472      0.21940907
    H      0.14557877     -3.45713338      2.12860467
    C     -1.17998563     -3.20983049      0.44548099
    N     -1.47112607     -2.18839310     -0.36756691
    H      1.07861755      1.61127928     -2.56388527
    C      0.94381416      3.76762364     -2.58459809
    H      0.08876314      3.37650132      1.27414005
    C      0.46392313      4.73869755     -0.39287866
    C     -1.81172692     -4.53191105      0.39150007
    H      1.16758893      3.87415477     -3.64924262
    C      0.69944738      4.90192662     -1.79082380
    N      0.38632078      6.03247799      0.10175258
    C     -1.42342689     -5.58916292      1.24178154
    C     -2.84539788     -4.74460351     -0.54747611
    N      0.64389934      6.24709769     -2.14229102
    H      0.27495806      6.29569120      1.07764097
    C      0.57331576      6.89837758     -0.96646686
    H     -0.62807892     -5.46005100      1.98244119
    C     -2.06216900     -6.83212268      1.14509361
    H     -3.12981575     -3.91042427     -1.19469822
    C     -3.49299528     -5.98573366     -0.65058560
    C      0.67957123      8.37678251     -0.78100079
    H     -1.75953355     -7.64876453      1.80582719
    C     -3.08530848     -7.03162091      0.20609890
    C     -4.60099948     -6.19307739     -1.65792083
    H      1.54533273      8.64447141     -0.14965881
    H      0.80969310      8.84466665     -1.76630974
    H     -0.22565324      8.79296082     -0.30612158
    H     -3.57381360     -8.00921401      0.13777261
    H     -4.19774556     -6.59843547     -2.60388653
    H     -5.35267796     -6.90997210     -1.28858843
    H     -5.11127130     -5.24701996     -1.89656705
    O      5.38092891      0.16596786      0.94031022
    H      5.22696987     -0.28362347      0.10373132
    H      5.74737580      1.00923477      0.68493287
