51
Energy:    -53.78625856
    H      2.74401776     -2.17904235     -3.17147261
    O      1.79384047     -2.42274630     -3.22235963
    S      1.34544415     -2.79347277     -1.64544472
    C      0.61080905     -1.23050446     -1.10626912
    O      2.59777239     -3.05367486     -0.90674122
    O      0.29582087     -3.81631295     -1.79354918
    C      0.21862723     -0.33071610     -2.11176569
    C      0.45394657     -0.96580006      0.29252884
    H      0.35720240     -0.57742069     -3.16472759
    C     -0.34426846      0.87144953     -1.67998192
    C     -0.06833133      0.28306728      0.67653034
    C      0.81467665     -1.94195826      1.36001279
    N     -0.83741514      1.97505320     -2.35360740
    C     -0.51892247      1.18245380     -0.29985970
    H     -0.15907565      0.52538496      1.73832204
    C      1.72076415     -1.54395509      2.38314765
    C      0.22191166     -3.21871112      1.38735878
    H     -0.90153089      2.08044061     -3.36223402
    C     -1.27968237      2.88361473     -1.39675754
    N     -1.14854489      2.40475845     -0.15472549
    H      2.15733490     -0.54230547      2.32488942
    C      2.06130942     -2.38968890      3.44130134
    H     -0.50835812     -3.51721450      0.63070643
    C      0.61419253     -4.07520951      2.42062168
    C     -1.82015965      4.20413514     -1.73442329
    H      2.75956915     -2.07468615      4.22110812
    C      1.47972175     -3.66902303      3.47997889
    N      0.32131106     -5.40250569      2.69821003
    C     -1.88323214      4.67665295     -3.06268749
    C     -2.29297164      5.02450215     -0.68616913
    N      1.60403123     -4.68216147      4.42559915
    H     -0.23375005     -6.02781492      2.11947301
    C      0.99344697     -5.74205165      3.86387888
    H     -1.52817989      4.06782744     -3.90000128
    C     -2.40934446      5.94789417     -3.32620333
    H     -2.23493717      4.63661277      0.33452613
    C     -2.82387408      6.29887880     -0.94018636
    C      1.00922376     -7.13880482      4.39321872
    H     -2.45753473      6.31056976     -4.35635143
    C     -2.87276937      6.75438049     -2.27589758
    C     -3.33016758      7.16054056      0.19409531
    H      1.47863492     -7.83751128      3.67819743
    H      1.58976324     -7.15317325      5.32566092
    H     -0.01040592     -7.50548342      4.60309520
    H     -3.27794154      7.74780587     -2.49483940
    H     -2.53235023      7.83228308      0.56019565
    H     -4.17163415      7.79625198     -0.12710557
    H     -3.66273620      6.54931969      1.04741891
    O      4.35236954     -1.78273902     -2.97997613
    H      5.12409902     -2.33715124     -3.13084259
    H      4.58827730     -1.26203811     -2.21589623
