51
Energy:    -59.10520510
    H      4.67919354     -0.66248481      0.29527418
    O      4.14301574     -1.35773072      0.73568819
    S      3.03575914     -0.52712154      1.68922331
    C      1.58236278     -0.50532352      0.61198942
    O      3.57182047      0.83915746      1.85545795
    O      2.79675283     -1.42023559      2.83598800
    C      1.55248481     -1.44052742     -0.43631873
    C      0.53321737      0.43878429      0.85543219
    H      2.37533221     -2.14104671     -0.58119753
    C      0.42590902     -1.40974748     -1.25995128
    C     -0.55499020      0.46528524     -0.03619721
    C      0.53439408      1.39262504      2.00117188
    N      0.04678895     -2.15308852     -2.36386164
    C     -0.64284047     -0.48782186     -1.06047021
    H     -1.34799274      1.20414533      0.10375541
    C      0.39842539      2.78550420      1.74116001
    C      0.61003085      0.91660974      3.32401144
    H      0.56230116     -2.93048243     -2.76691359
    C     -1.19271974     -1.67712793     -2.78066580
    N     -1.65287134     -0.71135464     -1.97774210
    H      0.34118505      3.11271281      0.69859200
    C      0.33943618      3.72884633      2.76953343
    H      0.67023966     -0.15428596      3.53491023
    C      0.60626273      1.87561644      4.34155650
    C     -1.89128307     -2.18851668     -3.96405028
    H      0.23653659      4.79650686      2.55880927
    C      0.41713185      3.26849292      4.09560814
    N      0.76182692      1.78165195      5.71688209
    C     -1.32965717     -3.17244681     -4.80547458
    C     -3.17173462     -1.67256152     -4.26342312
    N      0.34070576      3.97078136      5.29437834
    H      0.96753167      0.93463666      6.24061069
    C      0.66960635      3.06579423      6.23487433
    H     -0.34105101     -3.59624720     -4.60329621
    C     -2.04293689     -3.62335952     -5.92359746
    H     -3.58682048     -0.91192181     -3.59650786
    C     -3.89526782     -2.11946705     -5.38020114
    C      0.91781046      3.35945173      7.67831778
    H     -1.60535481     -4.38625653     -6.57288250
    C     -3.31256550     -3.10063817     -6.21192119
    C     -5.26678128     -1.55957447     -5.68163129
    H      1.94882377      3.09573000      7.97370803
    H      0.77209750      4.43513122      7.84672910
    H      0.22623205      2.80001362      8.33168927
    H     -3.85803632     -3.45857468     -7.09131703
    H     -5.19456256     -0.70219938     -6.37551341
    H     -5.91401960     -2.31355650     -6.15908146
    H     -5.76610485     -1.20191345     -4.76778855
    O      5.42362159      0.72131736     -0.26057436
    H      5.06478453      1.36260170      0.36046538
    H      6.01596945      1.23421647     -0.80523805
