51
Energy:    -59.10519113
    H      3.70542837      2.94099736      0.20312124
    O      3.83757689      2.08967146      0.67492520
    S      2.46904620      1.89483564      1.63112642
    C      1.45491544      0.81914140      0.58820280
    O      1.84866308      3.23026432      1.74718253
    O      2.94685467      1.14765604      2.80725044
    C      2.11537704      0.11542312     -0.43308074
    C      0.04683797      0.71904850      0.83029629
    H      3.19063972      0.22310738     -0.57802645
    C      1.31919507     -0.70840804     -1.23050628
    C     -0.71954025     -0.08240390     -0.03586736
    C     -0.64726566      1.41833660      1.94911232
    N      1.60007872     -1.53470752     -2.30439619
    C     -0.08617773     -0.83955575     -1.03127633
    H     -1.80197026     -0.14224410      0.10240195
    C     -1.74879346      2.27034620      1.65428670
    C     -0.25517849      1.19263457      3.28235732
    H      2.52001330     -1.71172878     -2.69800622
    C      0.40214915     -2.11890225     -2.70480505
    N     -0.61748129     -1.75763181     -1.91805131
    H     -2.02144666      2.41690260      0.60477660
    C     -2.47635851      2.91463215      2.65751684
    H      0.56110713      0.50588814      3.52105825
    C     -0.95596835      1.88729491      4.27303718
    C      0.29505813     -3.01944834     -3.85695793
    H     -3.31974112      3.56825539      2.42008381
    C     -2.09420544      2.70132861      3.99351707
    N     -0.78563111      1.98458694      5.64637963
    C      1.39795302     -3.32116520     -4.68407751
    C     -0.96049472     -3.60149830     -4.14014495
    N     -2.65984423      3.17301912      5.17405120
    H     -0.03227860      1.56866435      6.18814469
    C     -1.78106539      2.82130332      6.13100143
    H      2.38586653     -2.89035147     -4.49367941
    C      1.23668099     -4.18834585     -5.77232290
    H     -1.79999958     -3.35384634     -3.48474805
    C     -1.13174430     -4.47329106     -5.22691492
    C     -1.82780290      3.25519168      7.55961107
    H      2.09326986     -4.42063636     -6.41056865
    C     -0.01634851     -4.75750253     -6.04490823
    C     -2.48190425     -5.09105163     -5.51121932
    H     -0.92691091      3.83035433      7.83777388
    H     -2.70789117      3.89698032      7.70185374
    H     -1.90194006      2.39261890      8.24416777
    H     -0.13009875     -5.43057308     -6.90108048
    H     -3.05048844     -4.47294178     -6.22985151
    H     -2.38047816     -6.09623201     -5.95245639
    H     -3.08856140     -5.17317099     -4.59602670
    O      3.21866219      4.41336205     -0.40781959
    H      2.50454531      4.61783628      0.20367642
    H      3.25769093      5.17595541     -0.98012032
