51
Energy:    -59.09746175
    H     -1.05943372      4.60003301      0.37158851
    O     -0.48742160      4.37669383     -0.39505335
    S      0.74717493      3.42546403      0.23430448
    C      0.13104087      1.76138001     -0.11850169
    O      0.75976428      3.66988125      1.69094985
    O      1.90997142      3.72140193     -0.62019600
    C     -0.86945814      1.64713047     -1.09850056
    C      0.66917999      0.64037045      0.59216972
    H     -1.24719834      2.53038660     -1.61421943
    C     -1.33608420      0.35735032     -1.35776545
    C      0.12640068     -0.63167040      0.33293293
    C      1.77133967      0.75097219      1.58993938
    N     -2.28897158     -0.14120336     -2.22860174
    C     -0.83456647     -0.78936708     -0.67550144
    H      0.49106841     -1.49692883      0.89212815
    C      1.56796388      0.24240425      2.90378980
    C      3.01485227      1.29766315      1.21977536
    H     -2.82651034      0.39971700     -2.90016876
    C     -2.33128191     -1.52118843     -2.05396776
    N     -1.42551694     -1.94014991     -1.16334714
    H      0.58700142     -0.17561494      3.14927424
    C      2.57483374      0.26626156      3.87155523
    H      3.19443315      1.65034309      0.20081090
    C      3.99562088      1.36659337      2.21398236
    C     -3.26776150     -2.39178592     -2.77158465
    H      2.40762133     -0.12552682      4.87824976
    C      3.82093393      0.81231022      3.51729378
    N      5.26842866      1.91795691      2.23653447
    C     -4.23954510     -1.88480410     -3.66048457
    C     -3.18563983     -3.78598483     -2.55979366
    N      4.99487694      0.92104061      4.25630361
    H      5.70721528      2.44453499      1.48538679
    C      5.79745472      1.69227521      3.49948388
    H     -4.33082307     -0.81084847     -3.85051787
    C     -5.10898456     -2.76427190     -4.31843624
    H     -2.42409850     -4.15548119     -1.86757097
    C     -4.05083671     -4.67554120     -3.21595050
    C      7.11092496      2.26332883      3.92382184
    H     -5.86008221     -2.36832478     -5.00701390
    C     -5.01934002     -4.14676674     -4.09708381
    C     -3.94441060     -6.16510982     -2.98090195
    H      7.09761038      3.36752074      3.90443283
    H      7.31927831      1.93597146      4.95149252
    H      7.93212488      1.92438869      3.26892011
    H     -5.70760536     -4.82323636     -4.61445570
    H     -4.62571622     -6.48205624     -2.17025552
    H     -4.22036946     -6.73626111     -3.88256592
    H     -2.92414640     -6.45479898     -2.68510617
    O     -1.79801682      4.83310481      1.84751866
    H     -1.09692930      4.52964412      2.43240146
    H     -2.48636612      5.12079829      2.44250413
