64
Energy:    -75.58460745
    H     -3.18367488      1.55642036      0.43507932
    O     -3.32705253      0.62569592      0.71510765
    S     -2.21385281      0.30917105      1.92246237
    C     -0.81655081     -0.33774314      1.02834931
    O     -2.82471949     -0.80613081      2.67344948
    O     -1.86177950      1.59869586      2.54613389
    C     -0.74683444     -1.70623898      0.72856979
    C      0.18554858      0.51456711      0.54863580
    N     -1.52787093     -2.79198371      1.04021922
    C      0.32044786     -2.22139488     -0.06715245
    H      0.11944632      1.58336702      0.76769798
    C      1.27462633      0.01234849     -0.21433610
    H     -2.34197791     -2.74136494      1.65083741
    C     -0.92015022     -3.91017520      0.47762405
    N      0.17387049     -3.58922382     -0.22273222
    C      1.31177760     -1.35594790     -0.55688797
    C      2.35946318      0.93570516     -0.64123941
    C     -1.44167417     -5.26919028      0.64860879
    H      2.12704432     -1.75876902     -1.16374241
    C      2.83191694      1.94543925      0.24505485
    C      2.92201124      0.80775776     -1.92793407
    C     -2.64599927     -5.52918765      1.33835615
    C     -0.71206601     -6.34723055      0.10115730
    H      2.37990619      2.02328362      1.23853084
    C      3.88519661      2.80008536     -0.09242251
    H      2.53958558      0.06173627     -2.63175475
    C      3.93798187      1.70319767     -2.27871186
    H     -3.23657177     -4.71646982      1.77357087
    C     -3.09998512     -6.84583123      1.47135061
    H      0.21779614     -6.12022490     -0.43009199
    C     -1.15878434     -7.67127228      0.22881787
    H      4.23641090      3.56878887      0.60153024
    C      4.48824754      2.64478232     -1.35273182
    N      4.63092201      1.92842160     -3.45951546
    H     -4.03344059     -7.04442402      2.00479020
    C     -2.36521771     -7.90735469      0.92264323
    C     -0.36281114     -8.81265818     -0.36232585
    N      5.59657005      3.28286154     -1.90202057
    H      4.49821216      1.43535849     -4.33818198
    C      5.53934837      2.95229093     -3.22155297
    H     -2.73206028     -8.93422666      1.03230407
    H     -1.01553377     -9.65170964     -0.65296621
    H      0.36503904     -9.20213285      0.37204572
    H      0.20364961     -8.49060176     -1.24945543
    C      6.33236031      3.57804304     -4.32134538
    H      7.02375812      4.30986528     -3.88065129
    H      5.68243650      4.10151803     -5.04353509
    H      6.92140809      2.82790901     -4.87693844
    C     -1.82617553      5.88986824      2.36148323
    C     -1.62484945      4.84903008      1.26941742
    O     -0.65318326      3.90293149      1.73286134
    C     -2.92622700      4.11829255      0.87163212
    C     -3.97973364      5.03752278      0.27237129
    O     -2.63356669      3.09113791     -0.08563080
    H     -0.86110661      6.30261903      2.67421599
    H     -2.28077637      5.44004821      3.24993413
    H     -2.45530770      6.71507157      2.01926957
    H     -1.18008337      5.32649089      0.38904517
    H     -1.12810560      3.18301281      2.18372482
    H     -3.34506993      3.60522141      1.74473155
    H     -3.57985888      5.57717047     -0.59331893
    H     -4.34059840      5.76522409      1.00352615
    H     -4.83511005      4.45491811     -0.08681805
    H     -1.88662178      3.39561729     -0.63114579
