64
Energy:    -75.58424966
    H     -2.53415536      2.49430463      0.32248332
    O     -3.02104186      1.64304850      0.38185956
    S     -2.32753457      0.77797860      1.63398124
    C     -1.06618269     -0.17818470      0.81842487
    O     -3.39897619     -0.14956122      2.04957807
    O     -1.70860428      1.75209218      2.55258020
    C     -1.38305643     -1.42225722      0.25328455
    C      0.23011621      0.32801223      0.66307096
    N     -2.51675304     -2.19685823      0.22663367
    C     -0.40432719     -2.15515799     -0.48332697
    H      0.46974475      1.30599471      1.08829965
    C      1.22679547     -0.40550998     -0.03622555
    H     -3.37411422     -1.95463828      0.72105080
    C     -2.20330036     -3.35988292     -0.47000899
    N     -0.94957150     -3.34398977     -0.93723628
    C      0.88817782     -1.63153219     -0.64709758
    C      2.61227031      0.12928673     -0.11469186
    C     -3.15693934     -4.45733213     -0.65527349
    H      1.63261742     -2.20011983     -1.21075952
    C      3.20140851      0.76323374      1.01637859
    C      3.34388613      0.00532107     -1.31376851
    C     -4.49118710     -4.37647122     -0.20030821
    C     -2.72060984     -5.62845872     -1.31275436
    H      2.61342071      0.84581804      1.93551851
    C      4.51806615      1.23229355      1.00615343
    H      2.88728390     -0.44397955     -2.20135195
    C      4.64169661      0.52720013     -1.33336977
    H     -4.86208043     -3.48266446      0.31179102
    C     -5.36120004     -5.45288253     -0.40465393
    H     -1.68224453     -5.66682455     -1.65732155
    C     -3.58522578     -6.71346743     -1.52284091
    H      4.95497513      1.71501907      1.88473958
    C      5.27325120      1.06484254     -0.16765435
    N      5.58698590      0.66776433     -2.33928172
    H     -6.39418580     -5.38732813     -0.05254735
    C     -4.91453363     -6.61037887     -1.05924260
    C     -3.09923841     -7.95996141     -2.22701066
    N      6.61267490      1.34610125     -0.42079401
    H      5.47727098      0.39035492     -3.31076751
    C      6.71134937      1.25814784     -1.77587502
    H     -5.60606421     -7.44627879     -1.21455447
    H     -3.91696542     -8.46178432     -2.76924890
    H     -2.69373086     -8.68597330     -1.49952983
    H     -2.29740903     -7.72929569     -2.94496608
    C      7.86231442      1.72139442     -2.60693401
    H      8.65205238      2.08808987     -1.93637125
    H      7.56971355      2.54193815     -3.28448675
    H      8.27545683      0.90394480     -3.22293032
    C     -0.25960139      5.73173721      3.26832613
    C     -0.19425819      4.86249825      2.02067317
    O      0.31112261      3.57685942      2.40243363
    C     -1.55716650      4.70523635      1.31106509
    C     -2.12045603      6.01518675      0.78124544
    O     -1.42916035      3.79631212      0.20901239
    H      0.70609834      5.72638842      3.78496762
    H     -0.99913780      5.34342508      3.97588856
    H     -0.51021033      6.76690460      3.02439659
    H      0.54347540      5.27860356      1.32536999
    H     -0.44853980      3.01159519      2.62715872
    H     -2.28091201      4.24818759      1.99536976
    H     -1.40718660      6.50236257      0.10711976
    H     -2.36373871      6.70528159      1.59299826
    H     -3.03006447      5.83191879      0.19888873
    H     -0.53256074      3.89609465     -0.15755764
