64
Energy:    -75.58423671
    H      1.65063775     -3.14485216      0.36441832
    O      2.37408448     -2.48225541      0.41744068
    S      1.97499415     -1.43164381      1.65600807
    C      1.06777524     -0.14596368      0.82271973
    O      3.27754410     -0.87058015      2.06784444
    O      1.08603701     -2.15905663      2.58143866
    C      1.75073045      0.93500523      0.24601582
    C     -0.32082059     -0.23402887      0.66521691
    N      3.06687717      1.32607922      0.21766174
    C      1.04427048      1.92276433     -0.50424898
    H     -0.84863930     -1.08691553      1.09959318
    C     -1.04426939      0.76025472     -0.04784829
    H      3.80817023      0.83965461      0.71972020
    C      3.12517113      2.52074277     -0.49337331
    N      1.92756039      2.88275334     -0.96778542
    C     -0.34601572      1.81684355     -0.66995670
    C     -2.52669223      0.67311746     -0.12868539
    C      4.36881946      3.27227862     -0.68488752
    H     -0.87995566      2.57870784     -1.24412387
    C     -3.28389054      0.26307815      1.00569174
    C     -3.18273381      1.00001329     -1.33332748
    C      5.61358402      2.79340828     -0.22121373
    C      4.31249052      4.51264921     -1.35757605
    H     -2.75133259      0.01604732      1.92912328
    C     -4.68086642      0.21834812      0.99278435
    H     -2.60868909      1.27765529     -2.22301763
    C     -4.57787124      0.89912217     -1.35492702
    H      5.69262630      1.83531152      0.30271463
    C      6.77122078      3.55021506     -0.43207294
    H      3.33624154      4.86205205     -1.70865521
    C      5.46762684      5.27922051     -1.57430059
    H     -5.24634524     -0.09724202      1.87395606
    C     -5.34613001      0.59415190     -0.18720076
    N     -5.51860653      1.04172241     -2.36481379
    H      7.73402696      3.17665801     -0.07319218
    C      6.70087967      4.78079859     -1.10178280
    C      5.38713576      6.60595011     -2.29478358
    N     -6.70687313      0.73224863     -0.44517256
    H     -5.32717611      1.26059438     -3.33858350
    C     -6.77084796      0.82970742     -1.80168500
    H      7.61500001      5.36368835     -1.26205923
    H      6.32029597      6.82752289     -2.83759434
    H      5.22103161      7.42986363     -1.57761279
    H      4.55482735      6.62244402     -3.01491390
    C     -8.00637770      0.72997724     -2.63444977
    H     -8.87191675      0.63007726     -1.96462282
    H     -7.97676978     -0.14886764     -3.30133810
    H     -8.14872898      1.62701045     -3.26168938
    C     -1.51070408     -5.49725027      3.33168927
    C     -1.30459753     -4.66475071      2.07433149
    O     -1.39410517     -3.28167176      2.43915884
    C      0.04286296     -4.93974842      1.37110998
    C      0.18043015     -6.36545111      0.85883943
    O      0.20108337     -4.04856493      0.25854210
    H     -2.42982821     -5.19103841      3.84253967
    H     -0.68954641     -5.34474564      4.03935261
    H     -1.58762576     -6.56237820      3.10046741
    H     -2.13255432     -4.84412108      1.37923810
    H     -0.49863107     -2.97267305      2.66222372
    H      0.87002867     -4.71725519      2.05467976
    H     -0.64598370     -6.61970577      0.18583591
    H      0.19947542     -7.08698657      1.67943912
    H      1.10389433     -6.47573756      0.27990524
    H     -0.68230924     -3.87425342     -0.11220580
