64
Energy:    -75.55889611
    H     -3.09669177      1.72577522      0.43217561
    O     -3.27011658      0.82252578      0.77755264
    S     -2.13030777      0.53479486      1.96715501
    C     -0.79396559     -0.23098814      1.07375981
    O     -2.76209103     -0.50090527      2.80930294
    O     -1.70172404      1.84473386      2.49267552
    C     -0.79355403     -1.61775165      0.86305676
    C      0.22657040      0.54241730      0.50709295
    N     -1.60922677     -2.64470965      1.27051259
    C      0.22234789     -2.23092787      0.06957758
    H      0.21409028      1.62503628      0.65699759
    C      1.26592706     -0.05672837     -0.25527323
    H     -2.39872210     -2.51802032      1.90204560
    C     -1.07000077     -3.82322621      0.76403057
    N      0.01182961     -3.59793984      0.00952472
    C      1.23234718     -1.44458840     -0.50761016
    C      2.37395953      0.78718177     -0.77660300
    C     -1.64317971     -5.14341278      1.04101128
    H      2.00799984     -1.92219243     -1.11213836
    C      2.91983514      1.82974656      0.02550140
    C      2.88549139      0.55104968     -2.06927109
    C     -2.83289565     -5.30364157      1.78441676
    C     -0.98000171     -6.28642618      0.54309833
    H      2.50634184      1.99198430      1.02553651
    C      3.99651059      2.61236629     -0.40109599
    H      2.44716963     -0.22089010     -2.70969596
    C      3.92620567      1.37516044     -2.51064307
    H     -3.37254467     -4.43865717      2.18351438
    C     -3.33813785     -6.58709352      2.01855862
    H     -0.06024576     -6.13644940     -0.03132048
    C     -1.47849046     -7.57792617      0.77217856
    H      4.40430057      3.40768839      0.22898106
    C      4.54822407      2.34884129     -1.66693003
    N      4.58677893      1.49206016     -3.72520737
    H     -4.26018494     -6.70844210      2.59339746
    C     -2.66914247     -7.71395564      1.51813686
    C     -0.75328670     -8.78990860      0.23276768
    N      5.66320233      2.89938946     -2.29219972
    H      4.40259056      0.94971430     -4.56467959
    C      5.54606562      2.48711911     -3.58449580
    H     -3.07573517     -8.71398058      1.70707465
    H     -1.45114827     -9.61567370      0.01916236
    H     -0.01779035     -9.16354699      0.96774895
    H     -0.20464636     -8.55178149     -0.69129198
    C      6.32657724      3.00402016     -4.74793549
    H      7.06365648      3.73084555     -4.37882162
    H      5.67506804      3.50851154     -5.48210795
    H      6.86321431      2.19371065     -5.27117651
    C     -1.48903003      6.09881924      2.02508005
    C     -1.37045836      4.98230591      0.99754770
    O     -0.42475562      4.02499055      1.49071263
    C     -2.71495852      4.28695258      0.68998135
    C     -3.74823512      5.21248459      0.06571861
    O     -2.49993380      3.18858600     -0.20690451
    H     -0.49690223      6.48685936      2.27930493
    H     -1.93143077      5.72762133      2.95504709
    H     -2.09369955      6.92794090      1.64983341
    H     -0.93641291      5.38201901      0.07414368
    H     -0.91418560      3.35746693      2.00255490
    H     -3.12489833      3.85010653      1.60763536
    H     -3.35583894      5.67715312     -0.84567999
    H     -4.05202909      6.00093232      0.75884153
    H     -4.63972620      4.64720405     -0.22722432
    H     -1.75997860      3.42364881     -0.79463980
