64
Energy:    -75.51245514
    H     -3.26374361      1.43449928      0.21795812
    O     -3.37833996      0.51736948      0.55106711
    S     -2.30151168      0.32657933      1.81643147
    C     -0.84349071     -0.31083357      1.01751430
    O     -2.89364862     -0.76650279      2.61366627
    O     -2.02976955      1.66675580      2.36949499
    C     -0.70366277     -1.69072305      0.80808135
    C      0.13964397      0.55442362      0.52199721
    N     -1.44948477     -2.78917333      1.15899666
    C      0.41537499     -2.20553671      0.08671294
    H      0.01940277      1.63066531      0.67010826
    C      1.27858763      0.05551656     -0.16672559
    H     -2.28862634     -2.73758620      1.73464168
    C     -0.77279144     -3.91152586      0.69144887
    N      0.33351899     -3.58557990      0.01304894
    C      1.38759666     -1.32828613     -0.42003202
    C      2.33919333      0.99860394     -0.61103037
    C     -1.24230738     -5.27946222      0.92904071
    H      2.24275584     -1.73075820     -0.96950087
    C      2.73260064      2.08147537      0.22617519
    C      2.95735988      0.81676736     -1.86531087
    C     -2.46091093     -5.55025554      1.58890840
    C     -0.44624642     -6.35535647      0.47855151
    H      2.23856865      2.20019467      1.19530166
    C      3.76107794      2.96016448     -0.12574653
    H      2.63533957      0.01217660     -2.53396445
    C      3.94738149      1.73362811     -2.23446878
    H     -3.10240625     -4.73958874      1.94946505
    C     -2.86329981     -6.87525372      1.78841783
    H      0.49346911     -6.12001142     -0.03129985
    C     -0.84085293     -7.68773384      0.67348032
    H      4.05136535      3.78535508      0.53047042
    C      4.41979602      2.75450825     -1.35047712
    N      4.67646081      1.91634883     -3.40076441
    H     -3.80790042     -7.08229549      2.29851527
    C     -2.06274233     -7.93452497      1.33581741
    C      0.02589580     -8.82650269      0.18589632
    N      5.52086727      3.40664123     -1.89784050
    H      4.59989889      1.36440274     -4.25063015
    C      5.53025655      2.99283894     -3.19491278
    H     -2.38955774     -8.96812065      1.49686603
    H     -0.57841380     -9.71046217     -0.07477888
    H      0.73993002     -9.13663721      0.96994332
    H      0.61291606     -8.53476184     -0.69834996
    C      6.33895021      3.58443078     -4.30216643
    H      6.98047716      4.37249878     -3.88359984
    H      5.69651545      4.03243502     -5.07969764
    H      6.98103908      2.82864926     -4.78680875
    C     -4.18731630      4.86507738     -0.20108350
    C     -3.12493361      4.03108638      0.50054747
    O     -2.75514789      2.95774641     -0.37421984
    C     -1.87295589      4.84293975      0.89959621
    C     -2.15977317      5.94390480      1.90934164
    O     -0.88533024      3.96798349      1.46182046
    H     -5.00344918      4.22348370     -0.55009305
    H     -3.77348357      5.35989787     -1.08552692
    H     -4.60914928      5.62164705      0.46490244
    H     -3.56115481      3.55678832      1.38688454
    H     -2.00690357      3.25968171     -0.91834988
    H     -1.41379649      5.27972749      0.00552513
    H     -2.63658475      5.53530719      2.80724904
    H     -2.80825232      6.71618927      1.48813920
    H     -1.22638106      6.41594908      2.23502147
    H     -1.35192055      3.25313401      1.93033374
