64
Energy:    -75.51244384
    H      2.83737764     -2.14680064      0.31279996
    O      3.17394768     -1.25991677      0.56849236
    S      2.20615299     -0.72039443      1.82124776
    C      0.91940414      0.18038497      0.98264006
    O      3.06030219      0.25982157      2.52170743
    O      1.64028969     -1.91016502      2.48460336
    C      1.10386076      1.53324497      0.66130754
    C     -0.25285636     -0.46277172      0.56680862
    N      2.09686383      2.44720899      0.91547215
    C      0.11948181      2.24090595     -0.09226066
    H     -0.38625961     -1.52178039      0.80217051
    C     -1.25947101      0.23677132     -0.15277910
    H      2.91489891      2.24310595      1.48761510
    C      1.69225384      3.65796561      0.36180330
    N      0.52287278      3.55191327     -0.27982808
    C     -1.04530382      1.58266619     -0.51836961
    C     -2.52401733     -0.45933786     -0.51063329
    C      2.47751037      4.88958573      0.48275391
    H     -1.79537286      2.13236352     -1.09319678
    C     -3.13986897     -1.34883148      0.41555289
    C     -3.11444172     -0.23474559     -1.77133601
    C      3.74246398      4.91412297      1.10968236
    C      1.94642825      6.08503802     -0.04926828
    H     -2.66260015     -1.50517238      1.38773600
    C     -4.35558119     -1.98298001      0.14424411
    H     -2.62921362      0.41545778     -2.50614910
    C     -4.30226253     -0.91633429     -2.05694512
    H      4.18366334      4.00512987      1.53131333
    C      4.45137933      6.11712417      1.19667738
    H      0.96468184      6.04035532     -0.53153214
    C      2.64940601      7.29667309      0.03260800
    H     -4.81517398     -2.66163765      0.86814001
    C     -4.97899835     -1.72338160     -1.08869088
    N     -5.08418563     -1.01149450     -3.19919281
    H      5.43119544      6.13326189      1.68148246
    C      3.91194959      7.29738368      0.66395039
    C      2.06353073      8.56688142     -0.54107044
    N     -6.21686337     -2.13624142     -1.57292116
    H     -4.90178670     -0.56182481     -4.09211263
    C     -6.16229249     -1.83494867     -2.89955664
    H      4.47765023      8.23316876      0.73712200
    H      2.85240118      9.25886278     -0.87777685
    H      1.46370465      9.09811661      0.21968961
    H      1.40125627      8.35452572     -1.39423783
    C     -7.11653226     -2.30246623     -3.94876147
    H     -7.91477725     -2.88039762     -3.46233959
    H     -6.61863467     -2.94968166     -4.69118667
    H     -7.57451861     -1.45619365     -4.48953242
    C      2.91362631     -5.72053570      0.17120572
    C      2.09693451     -4.60582625      0.80910958
    O      1.96820029     -3.54729598     -0.14847026
    C      0.69958443     -5.06337415      1.28224452
    C      0.74474126     -6.11837964      2.37718665
    O     -0.03847307     -3.93767019      1.77733113
    H      3.84872198     -5.32043560     -0.23504420
    H      2.37163415     -6.17066092     -0.66663483
    H      3.16222972     -6.50106800      0.89428503
    H      2.65587898     -4.18073916      1.65037235
    H      1.15582573     -3.70460413     -0.66073359
    H      0.12701112     -5.44730171      0.43034462
    H      1.32790683     -5.76563763      3.23510855
    H      1.18129486     -7.05310106      2.01652501
    H     -0.26484117     -6.32830117      2.74703833
    H      0.59580905     -3.31961047      2.18218835
