64
Energy:    -75.51243095
    H      2.79537190     -2.17007778      0.48370127
    O      3.12708253     -1.28362343      0.74711679
    S      2.10074664     -0.72086973      1.94170874
    C      0.86866213      0.18264704      1.02737063
    O      2.92704400      0.25897322      2.67531521
    O      1.48906121     -1.89767032      2.58729167
    C      1.08328317      1.52999393      0.70163583
    C     -0.28674263     -0.45394614      0.55774315
    N      2.07085255      2.43725633      0.99755246
    C      0.14675474      2.23848866     -0.10990636
    H     -0.44293005     -1.50892554      0.79714859
    C     -1.24733009      0.24702501     -0.22094239
    H      2.85582201      2.23181125      1.61383345
    C      1.70792535      3.64551578      0.41054057
    N      0.57259962      3.54340485     -0.29017253
    C     -1.00080184      1.58662741     -0.58924423
    C     -2.49844969     -0.44098469     -0.63693208
    C      2.49819916      4.87088204      0.55916704
    H     -1.71427149      2.13695183     -1.20835739
    C     -3.17073261     -1.31411236      0.26527452
    C     -3.02000080     -0.22495511     -1.92911228
    C      3.72890634      4.89041131      1.25106838
    C      2.00769467      6.06528654     -0.01267668
    H     -2.74643585     -1.46406123      1.26269900
    C     -4.37697652     -1.93966106     -0.06240438
    H     -2.49055717      0.41230206     -2.64448194
    C     -4.19812570     -0.89836512     -2.26910443
    H      4.13830684      3.98205096      1.70490834
    C      4.44442931      6.08750741      1.36210348
    H      1.05204394      6.02454170     -0.54509809
    C      2.71764267      7.27101462      0.09284402
    H     -4.88053882     -2.60573621      0.64370886
    C     -4.93256895     -1.68800298     -1.32895649
    N     -4.92031362     -0.99889884     -3.44958170
    H      5.39773164      6.09975729      1.89726758
    C      3.94547234      7.26679236      0.78928244
    C      2.17535052      8.54022098     -0.52426249
    N     -6.14759164     -2.09446777     -1.87278388
    H     -4.68704781     -0.56104543     -4.33651431
    C     -6.02084451     -1.80862973     -3.19790606
    H      4.51600580      8.19791004      0.88189151
    H      2.98766002      9.22083165     -0.82666682
    H      1.54204721      9.08565716      0.19836072
    H      1.55637738      8.32461220     -1.40856001
    C     -6.92371974     -2.27879408     -4.29048961
    H     -7.75204957     -2.84359609     -3.84029590
    H     -6.39432859     -2.93902117     -4.99888936
    H     -7.34430130     -1.43432588     -4.86350498
    C      2.84281250     -5.74574258      0.38460714
    C      2.00525130     -4.61620990      0.96695683
    O      1.93734548     -3.56732482     -0.00733619
    C      0.58057144     -5.05508446      1.37127161
    C      0.55788730     -6.09810612      2.47832411
    O     -0.17090468     -3.91691170      1.81500057
    H      3.80182150     -5.35915554      0.02353207
    H      2.34075120     -6.20006828     -0.47554844
    H      3.04545939     -6.52043566      1.12802012
    H      2.52380958     -4.18704263      1.83168440
    H      1.15125519     -3.72263277     -0.55965266
    H      0.04937416     -5.44308636      0.49476834
    H      1.09903280     -5.74131965      3.36172887
    H      1.00320106     -7.04093542      2.15101911
    H     -0.47168387     -6.29423463      2.79712000
    H      0.44760093     -3.30041242      2.24581426
