64
Energy:    -75.51226746
    H     -0.35724286     -3.46381258      0.79478760
    O      0.59184593     -3.27251857      0.96169499
    S      0.64314968     -2.01188112      2.05954204
    C      0.69458064     -0.56787298      1.01906892
    O      1.96870786     -2.15844170      2.69393428
    O     -0.61899853     -2.04043943      2.82240660
    C      1.92406210     -0.08704561      0.54505481
    C     -0.48633111      0.05688164      0.59967638
    N      3.23331406     -0.44338845      0.75686627
    C      1.97150631      1.01245792     -0.36406126
    H     -1.44423890     -0.33099261      0.95556572
    C     -0.45489224      1.17570974     -0.27649443
    H      3.51853251     -1.17107006      1.41056108
    C      4.02263485      0.43938725      0.02620236
    N      3.28690296      1.30244616     -0.68388068
    C      0.78082060      1.62191035     -0.79115528
    C     -1.72446399      1.86022964     -0.63888245
    C      5.48763744      0.40304204      0.05052178
    H      0.82589081      2.46488778     -1.48581688
    C     -2.73724222      2.05938720      0.34239708
    C     -1.92302387      2.31449933     -1.95896844
    C      6.20171440     -0.58458524      0.76356839
    C      6.20042111      1.38902306     -0.66640420
    H     -2.55843029      1.69877673      1.35992073
    C     -3.92274111      2.74452519      0.06152821
    H     -1.16870871      2.13147598     -2.73076641
    C     -3.13576443      2.95009789     -2.24589841
    H      5.68011139     -1.36403397      1.32844712
    C      7.60068088     -0.57446628      0.75210635
    H      5.62458753      2.14320129     -1.21232715
    C      7.60336753      1.40789429     -0.68446608
    H     -4.68898414      2.88991994      0.82805217
    C     -4.10637937      3.24818784     -1.23799860
    N     -3.69792235      3.42263909     -3.42312918
    H      8.15128618     -1.34101545      1.30398693
    C      8.29613509      0.41092059      0.03576066
    C      8.34905884      2.47289283     -1.45615810
    N     -5.12876326      4.03592910     -1.75899467
    H     -3.28159646      3.37715706     -4.34907849
    C     -4.93506243      3.96894153     -3.10499231
    H      9.39205768      0.40732235      0.03336700
    H      9.32264901      2.10290673     -1.81637813
    H      8.54812261      3.35114495     -0.81599811
    H      7.76816258      2.82169308     -2.32362275
    C     -5.89772048      4.41362330     -4.15643161
    H     -6.76819996      4.86834519     -3.66317763
    H     -6.24705031      3.56655932     -4.77160335
    H     -5.44664307      5.16046009     -4.83254253
    C     -3.38436049     -5.34387629      1.11003982
    C     -2.80616805     -4.00286079      1.53882293
    O     -2.03337603     -3.48471380      0.44871551
    C     -3.88227822     -2.97728568      1.95831857
    C     -4.68545007     -3.40443754      3.17751104
    O     -3.26420509     -1.71644798      2.25041938
    H     -2.59013294     -5.99458041      0.72884466
    H     -4.10577624     -5.21542679      0.29677170
    H     -3.87409821     -5.85509304      1.94232127
    H     -2.09722316     -4.15794311      2.35991222
    H     -2.62063269     -2.93580145     -0.09986160
    H     -4.56375797     -2.79124113      1.12049592
    H     -4.02478468     -3.61443268      4.02601696
    H     -5.28569777     -4.29416212      2.97147011
    H     -5.35780309     -2.59917894      3.49312789
    H     -2.38179580     -1.89543066      2.62128330
