64
Energy:    -75.51222359
    H      1.06950993      3.40459349      0.14891436
    O      0.09576599      3.44988151      0.27135919
    S     -0.27071314      2.47607473      1.58074851
    C     -0.59386492      0.89289165      0.83275569
    O     -1.55650755      3.01688845      2.06581681
    O      0.93684565      2.39941514      2.42438413
    C     -1.87899873      0.58840918      0.36028291
    C      0.43865546     -0.03251611      0.63709487
    N     -3.08688921      1.24101208      0.39337426
    C     -2.12858301     -0.63907884     -0.32428400
    H      1.44332306      0.21467866      0.98955587
    C      0.19920403     -1.27510492     -0.01026597
    H     -3.23255335      2.12886605      0.87158372
    C     -4.01997451      0.40935029     -0.21808344
    N     -3.46208793     -0.71193496     -0.68911630
    C     -1.08290733     -1.55340118     -0.52959115
    C      1.30300584     -2.26435041     -0.13159172
    C     -5.44195222      0.74945055     -0.32033891
    H     -1.28283341     -2.49224383     -1.05285117
    C      2.20939337     -2.46360752      0.94870975
    C      1.44945283     -3.00784389     -1.32078671
    C     -5.95178816      1.98617120      0.13169909
    C     -6.32332674     -0.19393519     -0.89253145
    H      2.07365526     -1.87522570      1.86126112
    C      3.22788452     -3.41966887      0.90042443
    H      0.78350313     -2.83452741     -2.17204072
    C      2.50550600     -3.92328630     -1.38219441
    H     -5.29580456      2.74015238      0.57879629
    C     -7.31805050      2.26098349      0.00862831
    H     -5.90415391     -1.14487882     -1.23662642
    C     -7.69511417      0.07197383     -1.02072133
    H      3.91384304     -3.56047157      1.74034258
    C      3.34825340     -4.20322560     -0.26048865
    N      2.99706674     -4.72983966     -2.39857461
    H     -7.71016256      3.21980847      0.35825495
    C     -8.18241596      1.31473136     -0.56169989
    C     -8.62360847     -0.95143508     -1.63416939
    N      4.19472126     -5.27280366     -0.53750294
    H      2.63692352     -4.78879027     -3.34704689
    C      4.07274499     -5.44202699     -1.88294051
    H     -9.25047301      1.54238531     -0.65385633
    H     -9.47886823     -0.47064321     -2.13606172
    H     -9.03336921     -1.62166989     -0.85722702
    H     -8.09896780     -1.58050281     -2.36944006
    C      4.95609242     -6.27849780     -2.74896067
    H      5.68720430     -6.79229341     -2.10919862
    H      5.50467425     -5.66386461     -3.48331005
    H      4.38030885     -7.03827972     -3.30534787
    C      4.41795621      4.64808176      0.34653457
    C      3.54617264      3.56959459      0.97370508
    O      2.72237510      3.01074185     -0.05734256
    C      4.35679382      2.45209187      1.66643517
    C      5.18544119      2.94377763      2.84353442
    O      3.46884096      1.43082059      2.14140220
    H      3.79940013      5.35662472     -0.21460555
    H      5.12538990      4.21218776     -0.36612172
    H      4.97420621      5.20602187      1.10361235
    H      2.85638005      4.03001950      1.68997045
    H      3.19736405      2.25346182     -0.44208201
    H      5.01372744      1.96425661      0.93744341
    H      4.55359292      3.45244566      3.58012360
    H      5.97208807      3.63082309      2.52179661
    H      5.65412443      2.09893080      3.35994883
    H      2.63257764      1.85835030      2.39850722
