64
Energy:    -75.58459508
    H     -3.16421504      1.58271153      0.47988619
    O     -3.31716848      0.64795050      0.74074644
    S     -2.20336353      0.29341369      1.93692752
    C     -0.81668475     -0.35017794      1.02407443
    O     -2.82420058     -0.83055515      2.66651192
    O     -1.83444590      1.56540241      2.58634303
    C     -0.76359151     -1.71272702      0.69521259
    C      0.19333007      0.50072070      0.55866862
    N     -1.55580849     -2.79593403      0.98682850
    C      0.29493754     -2.22295363     -0.11524164
    H      0.14015794      1.56532640      0.80049178
    C      1.27391623      0.00248893     -0.21885221
    H     -2.36711681     -2.74905411      1.60145691
    C     -0.96283606     -3.90876561      0.39845823
    N      0.13227135     -3.58544413     -0.29910395
    C      1.29429724     -1.35858848     -0.59034907
    C      2.36765750      0.92236260     -0.63027350
    C     -1.49916389     -5.26511895      0.54269091
    H      2.10277527     -1.75766220     -1.20865357
    C      2.85469819      1.90772747      0.27534254
    C      2.92414804      0.81531540     -1.92150282
    C     -2.70391266     -5.52603432      1.23135089
    C     -0.78380257     -6.33950713     -0.03015307
    H      2.40712771      1.96963987      1.27194453
    C      3.91642066      2.75737519     -0.04800428
    H      2.53077370      0.08871160     -2.63946143
    C      3.94898062      1.70644768     -2.25714465
    H     -3.28366203     -4.71608805      1.68585689
    C     -3.17236030     -6.83998728      1.33824073
    H      0.14668983     -6.11182787     -0.56000876
    C     -1.24508621     -7.66082534      0.07122043
    H      4.27880866      3.50721554      0.66068563
    C      4.51319384      2.62196492     -1.31358510
    N      4.64024388      1.94875866     -3.43554590
    H     -4.10611503     -7.03926761      1.87089958
    C     -2.45165680     -7.89789508      0.76447027
    C     -0.46423952     -8.79836604     -0.54689414
    N      5.62674244      3.25896649     -1.85347446
    H      4.49882281      1.47591953     -4.32391589
    C      5.56108761      2.95704545     -3.17946470
    H     -2.82975640     -8.92264996      0.85381868
    H     -1.12748373     -9.62366058     -0.85270788
    H      0.26173657     -9.21147771      0.17633159
    H      0.10269548     -8.46403388     -1.42916604
    C      6.35725549      3.59692636     -4.26879759
    H      7.05848549      4.31141220     -3.81537452
    H      5.71076656      4.14286246     -4.97731070
    H      6.93576467      2.85210915     -4.84232740
    C     -1.75072274      5.85884394      2.49218349
    C     -1.56511575      4.83913043      1.37763496
    O     -0.60262848      3.87253216      1.81732123
    C     -2.87611819      4.13170803      0.96944364
    C     -3.92122729      5.07524226      0.39371443
    O     -2.59854971      3.12179182     -0.01039001
    H     -0.77992127      6.25396661      2.80990282
    H     -2.20725270      5.39549366      3.37265604
    H     -2.37164441      6.69815063      2.16985049
    H     -1.11807701      5.33005371      0.50585993
    H     -1.08410089      3.14864570      2.25468232
    H     -3.29766618      3.60504584      1.83309764
    H     -3.51831776      5.62853077     -0.46189923
    H     -4.27120127      5.79134360      1.14142899
    H     -4.78443952      4.51005878      0.02554831
    H     -1.85013195      3.42928945     -0.55218061
