64
Energy:    -75.51217477
    H      2.76254751     -2.14869394      0.71325854
    O      3.12782224     -1.24198381      0.81160548
    S      2.17431825     -0.45853400      1.94038515
    C      0.92149701      0.32120569      0.94397462
    O      3.05845533      0.60176606      2.46488817
    O      1.56648999     -1.49341532      2.79791735
    C      1.15241747      1.58931792      0.39073316
    C     -0.27024382     -0.34691504      0.63716933
    N      2.17466576      2.50109976      0.48895384
    C      0.19500889      2.18429137     -0.48506728
    H     -0.43996827     -1.34279760      1.05442530
    C     -1.25026704      0.24679660     -0.20396145
    H      2.98337556      2.37484386      1.09577747
    C      1.81289540      3.60748944     -0.27342015
    N      0.64286474      3.42775784     -0.89721081
    C     -0.98973202      1.49927478     -0.79925709
    C     -2.53622271     -0.46017955     -0.44522423
    C      2.63865241      4.81496990     -0.36431188
    H     -1.71889618      1.96282579     -1.46906086
    C     -3.18484400     -1.15161566      0.61755492
    C     -3.11435342     -0.44278724     -1.73125549
    C      3.90151436      4.90881377      0.26028561
    C      2.14989221      5.91423145     -1.10386546
    H     -2.71650182     -1.14916234      1.60650264
    C     -4.42021499     -1.78393484      0.45100176
    H     -2.60498905      0.05129414     -2.56467766
    C     -4.32339245     -1.12520626     -1.90325228
    H      4.31045200      4.07476876      0.83980000
    C      4.65013124      6.08461932      0.14030607
    H      1.16889285      5.81693608     -1.57986426
    C      2.89288283      7.09781888     -1.23046221
    H     -4.90487628     -2.30876807      1.27893926
    C     -5.03024094     -1.72612997     -0.81418437
    N     -5.10406814     -1.39522840     -3.01807178
    H      5.62823364      6.15434542      0.62382438
    C      4.15252031      7.16908149     -0.59733893
    C      2.35201768      8.26504001     -2.02472018
    N     -6.27957348     -2.17765293     -1.22956037
    H     -4.90354300     -1.11652406     -3.97457142
    C     -6.21026963     -2.11738156     -2.58797170
    H      4.74907641      8.08422093     -0.68512064
    H      3.16486117      8.86069417     -2.47082285
    H      1.76771601      8.94148713     -1.37528284
    H      1.68597384      7.92691241     -2.83320785
    C     -7.17599733     -2.73167903     -3.54713052
    H     -7.99490292     -3.18838628     -2.97387829
    H     -6.69752611     -3.51567443     -4.15901409
    H     -7.60340226     -1.97983615     -4.23300172
    C      2.71921320     -5.69179773      1.20514412
    C      1.93819541     -4.45603352      1.62867929
    O      1.84843663     -3.57969859      0.49819335
    C      0.52461978     -4.77722905      2.16200036
    C      0.53048677     -5.62311984      3.42628211
    O     -0.17693973     -3.55842909      2.44376248
    H      3.66863461     -5.40030434      0.74345852
    H      2.16534248     -6.26502664      0.45482363
    H      2.93893009     -6.33996902      2.05689318
    H      2.50815586     -3.90738099      2.38694474
    H      1.03303369     -3.79858665      0.01412924
    H     -0.05754210     -5.28682831      1.38587528
    H      1.12216640     -5.14347885      4.21393606
    H      0.93665863     -6.62051533      3.24030722
    H     -0.48686412     -5.73154061      3.81788917
    H      0.47632317     -2.89947790      2.73914683
