64
Energy:    -75.51211036
    H     -1.54798151     -3.10106459      0.86281126
    O     -0.58544306     -3.27646715      0.95211230
    S      0.01280689     -2.14339839      2.02698865
    C      0.51274985     -0.80206398      0.96808920
    O      1.23556889     -2.77995957      2.55678195
    O     -1.10733403     -1.71774021      2.88716040
    C      1.79206361     -0.80051261      0.39288238
    C     -0.38279679      0.22168021      0.63536551
    N      2.88943931     -1.61850750      0.50529207
    C      2.17132368      0.21982830     -0.53054451
    H     -1.38546616      0.20839275      1.07030065
    C     -0.00866467      1.26530044     -0.25419729
    H      2.93569327     -2.41154890      1.14336175
    C      3.88958986     -1.07647412     -0.29601230
    N      3.47172174      0.00960392     -0.95647480
    C      1.26047734      1.23309577     -0.86998816
    C     -0.95982364      2.37628641     -0.52384850
    C      5.23478613     -1.65125328     -0.38668159
    H      1.55948693      2.01212997     -1.57631386
    C     -1.74798043      2.91766468      0.53161891
    C     -1.07854394      2.89509503     -1.82966514
    C      5.58683763     -2.84515024      0.27996584
    C      6.20322851     -0.98531698     -1.16952907
    H     -1.63647454      2.49854149      1.53624331
    C     -2.61471876      3.99675749      0.33660001
    H     -0.50751575      2.46036626     -2.65616300
    C     -1.98927209      3.93831207     -2.02797407
    H      4.85988796     -3.38701184      0.89366625
    C      6.88525378     -3.35175075      0.15825959
    H      5.90599424     -0.06232950     -1.67761067
    C      7.50804916     -1.48513587     -1.29823476
    H     -3.21109600      4.40101417      1.15924072
    C     -2.69978642      4.55559472     -0.95050272
    N     -2.42687269      4.60573152     -3.16298332
    H      7.15501968     -4.27703069      0.67441790
    C      7.83747322     -2.67998243     -0.62263762
    C      8.53188661     -0.75694309     -2.13923307
    N     -3.39623848      5.67410245     -1.39898572
    H     -2.13004734      4.42626323     -4.11821305
    C     -3.34615829      5.56424418     -2.75513473
    H      8.85088303     -3.08766996     -0.71127419
    H      9.26892997     -1.45361755     -2.57043811
    H      9.09023560     -0.02561841     -1.52753985
    H      8.05531165     -0.20308953     -2.96247031
    C     -4.15517181      6.35132576     -3.73287534
    H     -4.75510409      7.08633639     -3.17821632
    H     -4.83922441      5.70398695     -4.30820959
    H     -3.51421780      6.89087780     -4.45150151
    C     -5.02101660     -3.73675908      1.43845405
    C     -3.95712582     -2.71154885      1.80391865
    O     -3.13483869     -2.49587598      0.65007849
    C     -4.54245760     -1.36888382      2.29425662
    C     -5.34925370     -1.49107703      3.57804899
    O     -3.48185552     -0.43047208      2.52131527
    H     -4.55535209     -4.62773738      1.00390000
    H     -5.70487556     -3.33678215      0.68300691
    H     -5.59864217     -4.04586422      2.31291429
    H     -3.29404148     -3.13181180      2.56847030
    H     -3.51864961     -1.75937380      0.14276625
    H     -5.16997516     -0.92968637      1.51048286
    H     -4.74902493     -1.94504009      4.37440442
    H     -6.24964251     -2.09272957      3.43082734
    H     -5.65008305     -0.50028417      3.93574329
    H     -2.70193132     -0.92896844      2.82370679
