64
Energy:    -75.50156294
    H     -2.79234629      1.68382995      1.45765224
    O     -2.70130091      0.86089077      1.98652164
    S     -1.14025186      0.84429932      2.58648630
    C     -0.23332284     -0.04241002      1.33684024
    O     -1.23561804     -0.02461672      3.77683424
    O     -0.67763899      2.24351848      2.64950282
    C     -0.16829209     -1.44300616      1.37697076
    C      0.35743620      0.63446381      0.26277945
    N     -0.61433290     -2.39363590      2.26203330
    C      0.47610770     -2.16984489      0.33097585
    H      0.28955163      1.72467897      0.22387448
    C      1.03455713     -0.07186161     -0.76826451
    H     -1.06993622     -2.16880695      3.14524593
    C     -0.21372360     -3.63234035      1.77079661
    N      0.41331046     -3.52772506      0.59339526
    C      1.05149658     -1.48265301     -0.74988907
    C      1.71535129      0.68551694     -1.85205510
    C     -0.46462758     -4.88891542      2.48228187
    H      1.54510410     -2.04659906     -1.54582466
    C      2.43043477      1.88008705     -1.55213700
    C      1.65278483      0.21613814     -3.18028061
    C     -1.20055326     -4.93504268      3.68645572
    C      0.04706572     -6.08756047      1.93857053
    H      2.46514638      2.22265915     -0.51348043
    C      3.13005489      2.59499527     -2.52842943
    H      1.07289465     -0.67843134     -3.42854220
    C      2.30920899      0.96779231     -4.16067713
    H     -1.61227509     -4.02469158      4.13416544
    C     -1.41266266     -6.16201842      4.32432808
    H      0.61322838     -6.02625044      1.00363635
    C     -0.16022815     -7.32321985      2.57032692
    H      3.67551853      3.50958121     -2.27977510
    C      3.11802797      2.10516992     -3.84603919
    N      2.37450186      0.86405803     -5.54276433
    H     -1.98388660     -6.19524878      5.25595834
    C     -0.89860033     -7.34515296      3.77321323
    C      0.39726005     -8.59579376      1.97404802
    N      3.79355243      2.55485383     -4.97683231
    H      1.91302824      0.16298972     -6.11575938
    C      3.18574482      1.89471883     -6.00079945
    H     -1.07272485     -8.30027589      4.28162826
    H     -0.22878528     -9.46719428      2.22555227
    H      1.41160541     -8.79714639      2.36304496
    H      0.47175961     -8.52713903      0.87799449
    C      3.33607702      2.19655796     -7.45554011
    H      4.07434293      3.00250030     -7.57054612
    H      2.38301444      2.52876825     -7.90196258
    H      3.68634180      1.31545005     -8.02062898
    C     -3.91326031      5.02334023      0.83419984
    C     -2.61763009      4.26812386      1.09395853
    O     -2.68437930      3.01976998      0.39311965
    C     -1.35619197      5.04891104      0.66391291
    C     -1.15234105      6.34473389      1.43414789
    O     -0.19220731      4.23171213      0.84931696
    H     -4.77506542      4.38703304      1.06207725
    H     -3.99675285      5.30320153     -0.22081279
    H     -3.98308683      5.92474492      1.44777286
    H     -2.55344304      4.01033618      2.15709847
    H     -2.30432039      3.15346321     -0.49276598
    H     -1.40287958      5.26682702     -0.40907679
    H     -1.12012486      6.15642468      2.51305510
    H     -1.94824492      7.06447803      1.22710826
    H     -0.19393133      6.80211104      1.16512940
    H     -0.34954204      3.65885198      1.62087255
