64
Energy:    -75.49075020
    H      3.54117181     -0.46154448      0.06524026
    O      3.18540196     -1.34328518     -0.18211000
    S      2.24804221     -1.11821954     -1.54878815
    C      0.62336582     -0.82096668     -0.88361423
    O      2.23811539     -2.45067192     -2.18558492
    O      2.74486612      0.09254497     -2.22923748
    C     -0.22341210     -1.89981591     -0.58940258
    C      0.20087478      0.47788616     -0.57499861
    N     -0.13327949     -3.25878931     -0.76561956
    C     -1.49046694     -1.67989661      0.03016061
    H      0.86989336      1.31556934     -0.78805271
    C     -1.07286286      0.71736734      0.00868041
    H      0.64595214     -3.71313898     -1.23948815
    C     -1.32123353     -3.81315410     -0.29910604
    N     -2.13955482     -2.88847425      0.21636214
    C     -1.89815057     -0.37495068      0.35029210
    C     -1.51792961      2.11545333      0.25153041
    C     -1.61353276     -5.24731671     -0.37581188
    H     -2.87099634     -0.21483443      0.82265944
    C     -1.24007705      3.13297007     -0.70541820
    C     -2.21904893      2.43186667      1.43336301
    C     -0.67202278     -6.17966557     -0.86369869
    C     -2.87821517     -5.70362800      0.05611453
    H     -0.69562894      2.86160265     -1.61498072
    C     -1.68520152      4.44824933     -0.54537546
    H     -2.40309911      1.66660595      2.19406174
    C     -2.61269609      3.76232460      1.61218592
    H      0.31779501     -5.85965501     -1.20509580
    C     -1.00179224     -7.53836768     -0.91391500
    H     -3.59058731     -4.96192096      0.43134460
    C     -3.21873493     -7.06409346      0.01006015
    H     -1.46420075      5.21652129     -1.29152816
    C     -2.43137762      4.76123382      0.60415964
    N     -3.21419469      4.43471949      2.66635551
    H     -0.27058729     -8.25846133     -1.29093020
    C     -2.26184185     -7.97796244     -0.48168076
    C     -4.57862841     -7.53345007      0.47501187
    N     -3.06809618      5.94481594      0.96605027
    H     -3.48842203      4.03217611      3.55828387
    C     -3.37252270      5.75983865      2.28013736
    H     -2.50771602     -9.04509045     -0.52467720
    H     -4.53701339     -8.56092433      0.87135874
    H     -5.29870740     -7.53381193     -0.36298819
    H     -4.98460007     -6.87568534      1.25867606
    C     -3.82659378      6.81373329      3.23570135
    H     -3.93958465      7.75853138      2.68579623
    H     -3.09584003      6.96713768      4.04838275
    H     -4.79637927      6.55639516      3.69576132
    C      6.07834077      2.04621007      0.33259660
    C      4.78461835      1.78656386     -0.42592179
    O      3.85811881      1.16936988      0.47667901
    C      4.16181517      3.06399838     -1.03095999
    C      5.04036924      3.72989953     -2.07914528
    O      2.90184629      2.74899995     -1.63948561
    H      6.42053993      1.12887643      0.82343438
    H      5.92530300      2.78918829      1.12184169
    H      6.87206766      2.39322048     -0.33333087
    H      4.96750191      1.04947342     -1.21591691
    H      3.34145961      1.87495967      0.90366651
    H      3.93945401      3.78173464     -0.23322308
    H      5.29262657      3.02674693     -2.88069481
    H      5.96674351      4.11184638     -1.64290301
    H      4.50888029      4.56518244     -2.54811860
    H      2.95966552      1.84396180     -1.99414584
