64
Energy:    -74.51555594
    H     -3.13328562      1.71783872      0.38535896
    O     -3.33915213      0.78798433      0.62662809
    S     -2.29631671      0.36977213      1.86545812
    C     -0.90064301     -0.32516149      1.00548648
    O     -2.99833085     -0.73337987      2.55194906
    O     -1.90018839      1.61624083      2.54750953
    C     -0.89382471     -1.68483344      0.66087846
    C      0.16591091      0.48460747      0.59622134
    N     -1.74567024     -2.73448146      0.90291819
    C      0.17575776     -2.23292078     -0.10934528
    H      0.14958789      1.54766714      0.84985237
    C      1.25658326     -0.05287332     -0.13997715
    H     -2.58050172     -2.65813423      1.48206800
    C     -1.17741791     -3.86607433      0.32605003
    N     -0.03917503     -3.58447122     -0.31853730
    C      1.23270743     -1.40910720     -0.52858574
    C      2.40738218      0.82139490     -0.49072198
    C     -1.77952851     -5.19841857      0.42835676
    H      2.04917889     -1.83709590     -1.11629062
    C      2.89728023      1.77326474      0.44855258
    C      3.01517719      0.70425030     -1.75771700
    C     -3.02402038     -5.41263314      1.06010126
    C     -1.08810308     -6.29731156     -0.12713138
    H      2.40922434      1.84380785      1.42538067
    C      4.00909356      2.57781187      0.18344123
    H      2.62198460      0.00446905     -2.50193927
    C      4.09256700      1.55204345     -2.03616263
    H     -3.58664859     -4.58264910      1.49973064
    C     -3.55484148     -6.70525518      1.12864475
    H     -0.12583897     -6.10575370     -0.61267681
    C     -1.61185836     -7.59755049     -0.06388478
    H      4.37280715      3.30230963      0.91736386
    C      4.65469171      2.43022136     -1.05655436
    N      4.84544417      1.77649468     -3.17983506
    H     -4.51921980     -6.86833007      1.61723153
    C     -2.85730883     -7.78791606      0.57268734
    C     -0.85588723     -8.76196012     -0.66258660
    N      5.81833909      3.02251287     -1.53858915
    H      4.72256372      1.32079969     -4.07984643
    C      5.79807110      2.73918062     -2.87014052
    H     -3.28429344     -8.79552835      0.63156541
    H     -1.54106504     -9.55290252     -1.00822729
    H     -0.18178295     -9.21572655      0.08603711
    H     -0.23610360     -8.44339397     -1.51463171
    C      6.66942232      3.35500899     -3.91487946
    H      7.38103578      4.03184584     -3.42162075
    H      6.07991699      3.93769919     -4.64353617
    H      7.23898609      2.59151252     -4.47258213
    C     -1.63219028      5.93884549      2.44623398
    C     -1.34911721      4.89801674      1.37244203
    O     -0.48929787      3.90058741      1.93800674
    C     -2.62580027      4.23682508      0.80790687
    C     -3.55133741      5.21262554      0.09715482
    O     -2.26811897      3.20398850     -0.12072744
    H     -0.69393167      6.30004753      2.88066104
    H     -2.21412179      5.50531303      3.26583774
    H     -2.17332270      6.79734754      2.04123035
    H     -0.77657683      5.35958348      0.56004148
    H     -1.05072111      3.20184503      2.31705164
    H     -3.17349158      3.73844984      1.61576226
    H     -3.02205983      5.73843657     -0.70529580
    H     -3.96343410      5.95164202      0.78881294
    H     -4.38345571      4.67665051     -0.37233842
    H     -1.44572945      3.47492017     -0.56625243
