64
Energy:    -75.58431939
    H     -3.19729415      1.42741009      0.69807786
    O     -3.33810165      0.45911561      0.78639573
    S     -2.23590463     -0.08635466      1.91985544
    C     -0.82538359     -0.53795562      0.93148507
    O     -2.84806345     -1.33067358      2.42776292
    O     -1.89812935      1.05522235      2.79077781
    C     -0.74436521     -1.81958171      0.36723373
    C      0.17666512      0.39626645      0.64184993
    N     -1.52219891     -2.94845962      0.44843967
    C      0.33433470     -2.16277573     -0.50240721
    H      0.10189657      1.40016458      1.06763063
    C      1.27673480      0.05934074     -0.19287624
    H     -2.34302034     -3.02293701      1.04751587
    C     -0.90191630     -3.93064406     -0.31755851
    N      0.19754250     -3.47314215     -0.92769976
    C      1.32564277     -1.21373089     -0.79938563
    C      2.36053295      1.05303596     -0.41571337
    C     -1.41714204     -5.29851183     -0.42537877
    H      2.14967603     -1.48520370     -1.46456883
    C      2.81755735      1.86875811      0.65853942
    C      2.93744127      1.18482461     -1.69564405
    C     -2.62714667     -5.69457717      0.18517019
    C     -0.67538004     -6.24389133     -1.16716630
    H      2.35458455      1.74640668      1.64243693
    C      3.86926067      2.77726006      0.50936388
    H      2.56693725      0.59173563     -2.53774454
    C      3.95173700      2.13580844     -1.85020123
    H     -3.22711732     -4.98648183      0.76597498
    C     -3.07468821     -7.01313157      0.04929569
    H      0.25869745     -5.91260775     -1.63208719
    C     -1.11555410     -7.56861242     -1.30965080
    H      4.20852552      3.39442096      1.34592755
    C      4.48655162      2.87715577     -0.74966024
    N      4.65580728      2.59324609     -2.95483911
    H     -4.01255074     -7.31701413      0.52195334
    C     -2.32785213     -7.94205407     -0.69038929
    C     -0.30659245     -8.56717024     -2.10604852
    N      5.59682578      3.61559029     -1.14871882
    H      4.53535182      2.28368652     -3.91527721
    C      5.55556187      3.55298417     -2.50816531
    H     -2.68973067     -8.97164076     -0.79068970
    H     -0.95120150     -9.33436526     -2.56476081
    H      0.41573149     -9.09180079     -1.45507316
    H      0.26731900     -8.07351788     -2.90512925
    C      6.35645853      4.38730720     -3.45285924
    H      7.03878594      5.01979631     -2.86788674
    H      5.71113009      5.04115180     -4.06443381
    H      6.95580910      3.76441362     -4.13925889
    C     -1.88607814      5.29791720      3.46076716
    C     -1.66700192      4.49501757      2.18646666
    O     -0.69469606      3.47944216      2.46439813
    C     -2.95972210      3.85281053      1.63670429
    C     -4.01226280      4.86867406      1.21938743
    O     -2.65082882      3.03693620      0.49829180
    H     -0.92684966      5.64406241      3.86025087
    H     -2.34738993      4.67918742      4.23711110
    H     -2.51644175      6.17223845      3.28165251
    H     -1.21577413      5.13920086      1.42340547
    H     -1.17008314      2.68266028      2.75809484
    H     -3.38473984      3.17526260      2.38587899
    H     -3.60644837      5.57073110      0.48252274
    H     -4.38517823      5.43561714      2.07604934
    H     -4.86030461      4.36566741      0.74197419
    H     -1.89996606      3.44630835      0.03263038
