64
Energy:    -75.58429747
    H      3.19535459     -1.57997370     -0.20220032
    O      3.40166760     -0.63054510     -0.05645645
    S      2.61583522     -0.17717776      1.34854623
    C      1.04212912      0.41427277      0.76201029
    O      3.39009968      0.98963366      1.81769828
    O      2.42766041     -1.39425337      2.16040410
    C      0.90005298      1.74982827      0.35751691
    C     -0.04576121     -0.45652074      0.62426315
    N      1.73235275      2.84217357      0.36413713
    C     -0.32946954      2.21194075     -0.20139043
    H      0.07283237     -1.50126987      0.92280265
    C     -1.28842986     -0.00372221      0.10350589
    H      2.67074793      2.83076128      0.76096361
    C      1.00471381      3.91604023     -0.13939239
    N     -0.22663694      3.55549457     -0.51909249
    C     -1.40934276      1.32688921     -0.35015733
    C     -2.44362422     -0.93841458      0.04366320
    C      1.55076594      5.27302303     -0.23196533
    H     -2.34831228      1.68924003     -0.77704739
    C     -2.68485941     -1.84965724      1.11124711
    C     -3.30283630     -0.91912302     -1.07427975
    C      2.88657599      5.56942191      0.11661494
    C      0.70864372      6.31108895     -0.68743357
    H     -2.00434390     -1.84410186      1.96812269
    C     -3.78773183     -2.70827977      1.12344463
    H     -3.10418521     -0.25121770     -1.91843686
    C     -4.37272190     -1.82043632     -1.08003684
    H      3.56623139      4.78803904      0.47187170
    C      3.35791355      6.88218625      0.00784137
    H     -0.32239270      6.05622267     -0.95277880
    C      1.17162553      7.63088003     -0.80030672
    H     -3.95849260     -3.40038935      1.95269254
    C     -4.67982640     -2.65837345      0.03815866
    N     -5.33223076     -2.13980021     -2.03005708
    H      4.39299820      7.10889686      0.27717028
    C      2.51049874      7.90381067     -0.44599417
    C      0.25442723      8.72939011     -1.28796324
    N     -5.88791282     -3.32007280     -0.16164918
    H     -5.41810585     -1.73445854     -2.95801268
    C     -6.15424209     -3.11612864     -1.48119171
    H      2.89193562      8.92792673     -0.52819638
    H      0.81579823      9.52257390     -1.80781714
    H     -0.27297804      9.20232205     -0.44006168
    H     -0.51076379      8.33835183     -1.97583588
    C     -7.19065339     -3.82430032     -2.29009312
    H     -7.75308759     -4.49580708     -1.62635187
    H     -6.73571895     -4.42771127     -3.09440331
    H     -7.89809311     -3.11653735     -2.75588558
    C      2.35264346     -5.68192406      2.40478456
    C      1.89022441     -4.74387560      1.29901890
    O      1.05975631     -3.73685456      1.89083760
    C      3.05470419     -4.08313873      0.52881916
    C      3.93142845     -5.07800035     -0.21655252
    O      2.53656038     -3.14400798     -0.42334124
    H      1.49328223     -6.04170169      2.98061556
    H      3.00953171     -5.16106914      3.10873979
    H      2.88030850     -6.54953548      2.00142611
    H      1.24487184     -5.29170558      0.60314293
    H      1.62945796     -2.98867435      2.14139377
    H      3.67310545     -3.49996387      1.22052789
    H      3.33325684     -5.68735922     -0.90314665
    H      4.46031890     -5.74182318      0.47190528
    H      4.67290576     -4.55105285     -0.82700460
    H      1.67953642     -3.48144947     -0.73935419
