64
Energy:    -75.58428307
    H      1.24587564     -3.34474533      0.08925956
    O      2.04718909     -2.78363948      0.18024303
    S      1.79360086     -1.79295145      1.50362402
    C      1.04792181     -0.34242546      0.78925289
    O      3.15970437     -1.43276328      1.93381431
    O      0.82822273     -2.47506176      2.38598822
    C      1.85625740      0.68739120      0.28568538
    C     -0.34202677     -0.24422542      0.65083078
    N      3.21079449      0.91262222      0.26365694
    C      1.27305017      1.81169341     -0.37269511
    H     -0.96903292     -1.05649110      1.02736597
    C     -0.94095468      0.88569798      0.03034834
    H      3.88938632      0.29949251      0.71284743
    C      3.41256687      2.14327534     -0.35357138
    N      2.26590018      2.68795664     -0.77649903
    C     -0.12088583      1.89309346     -0.52064934
    C     -2.42322071      0.99042142     -0.02986294
    C      4.73904657      2.74697029     -0.50897088
    H     -0.55980911      2.75855283     -1.02416044
    C     -3.21628626      0.58926369      1.08297690
    C     -3.04319727      1.49080470     -1.19333174
    C      5.91773406      2.08168957     -0.10666956
    C      4.83316753      4.03405929     -1.08233389
    H     -2.71116383      0.20551347      1.97457944
    C     -4.60788752      0.71991518      1.09220360
    H     -2.44638097      1.76442922     -2.06917472
    C     -4.44009718      1.56636926     -1.19715699
    H      5.88031891      1.08274125      0.33987313
    C      7.15938366      2.70283510     -0.27937019
    H      3.90556353      4.52895133     -1.38734815
    C      6.07351259      4.66563826     -1.26007850
    H     -5.20104099      0.40836632      1.95645661
    C     -5.23066581      1.26786614     -0.04272633
    N     -5.36399232      1.90448152     -2.17556737
    H      8.07068583      2.18510834      0.03179432
    C      7.23840050      3.98175219     -0.85026635
    C      6.15409895      6.04493412     -1.87394719
    N     -6.56544497      1.59424441     -0.26427502
    H     -5.15483760      2.17425926     -3.13277805
    C     -6.62813923      1.80604028     -1.60775146
    H      8.21706632      4.45718575     -0.98157186
    H      7.10307081      6.19093264     -2.41493041
    H      6.09878701      6.82370338     -1.09214348
    H      5.32438900      6.22187507     -2.57528185
    C     -7.87340667      1.92713549     -2.42299494
    H     -8.73894971      1.88300203     -1.74720394
    H     -7.95997652      1.10704188     -3.15643692
    H     -7.90733479      2.88175060     -2.97609609
    C     -2.16054227     -5.51296148      2.92258035
    C     -1.86220517     -4.61563538      1.72998450
    O     -1.77432350     -3.26544522      2.20251108
    C     -0.56590631     -4.99963183      0.98302399
    C     -0.61270577     -6.38628278      0.35933902
    O     -0.30648604     -4.04977189     -0.05981646
    H     -3.02961494     -5.13616682      3.47236346
    H     -1.32078789     -5.52037684      3.62479299
    H     -2.37249500     -6.53854773      2.61092852
    H     -2.71197049     -4.63494116      1.03834357
    H     -0.84529492     -3.08894620      2.43243714
    H      0.28838938     -4.93666385      1.66653544
    H     -1.47015282     -6.48159513     -0.31611572
    H     -0.67744201     -7.16728849      1.12104718
    H      0.28468870     -6.56444346     -0.24320220
    H     -1.16411449     -3.73805552     -0.39970961
