51
Energy:    -57.98510759
    H      4.27014671     -1.80808678      1.29543255
    O      4.05469845     -0.95595985      1.73438898
    S      2.68183085     -1.22065545      2.65214591
    C      1.35914918     -0.80242047      1.53591040
    O      2.74856742     -0.16908145      3.68692915
    O      2.63679115     -2.65980704      2.97247405
    C      0.92345721      0.52663569      1.42965016
    C      0.79260349     -1.77186954      0.69927698
    N      1.24478999      1.69092849      2.08321923
    C     -0.07102187      0.88998802      0.47223832
    H      1.14669232     -2.80346737      0.77081736
    C     -0.22454613     -1.43360229     -0.23422283
    H      1.89492388      1.73413110      2.86657513
    C      0.44076013      2.69509002      1.55276132
    N     -0.33442146      2.24637640      0.55870921
    C     -0.62144561     -0.08670659     -0.37314641
    C     -0.85603059     -2.50353047     -1.05164933
    C      0.46321097      4.07526286      2.04547208
    H     -1.38422266      0.19937096     -1.10220595
    C     -1.15305298     -3.76924120     -0.47023119
    C     -1.16258743     -2.26086912     -2.40647492
    C      1.36205999      4.49908405      3.04856481
    C     -0.44432662      5.00534602      1.49273089
    H     -0.90655604     -3.93214907      0.58336659
    C     -1.79464734     -4.78528664     -1.18417609
    H     -0.90243009     -1.30614628     -2.87443160
    C     -1.75407330     -3.30218103     -3.12957103
    H      2.07938505      3.80411705      3.49707750
    C      1.34271070      5.82927042      3.48165929
    H     -1.13032681      4.65319721      0.71568780
    C     -0.47168854      6.34163796      1.91995000
    H     -2.01673700     -5.75068000     -0.72101430
    C     -2.15265045     -4.53363813     -2.52009368
    N     -2.09158468     -3.44900276     -4.46737462
    H      2.04055048      6.15527350      4.25759591
    C      0.43583115      6.74272431      2.92401561
    C     -1.45206708      7.32244927      1.31774314
    N     -2.87136036     -5.31611275     -3.41922189
    H     -1.94884544     -2.76206672     -5.20257690
    C     -2.65990174     -4.70768482     -4.61872916
    H      0.43141395      7.78236183      3.27071335
    H     -1.05245628      8.34945997      1.32702875
    H     -2.39618251      7.33239772      1.89159424
    H     -1.70010926      7.05627751      0.27888576
    C     -2.98037844     -5.27483342     -5.96246058
    H     -3.47945965     -6.24392943     -5.82254323
    H     -2.06885021     -5.43430327     -6.56385119
    H     -3.65266208     -4.61236708     -6.53476737
    O      4.45049362     -3.36538179      0.76689497
    H      4.08953648     -3.97483498      1.41802994
    H      4.84501948     -3.93548461      0.11120287
