51
Energy:    -57.97383117
    H     -3.05746369      3.17816334      1.93195539
    O     -3.35858349      2.81768341      1.06905210
    S     -3.56429817      1.17142873      1.28031973
    C     -1.97688812      0.50185951      0.83065831
    O     -4.52565168      0.80351513      0.22132162
    O     -3.82260749      0.94016769      2.71405284
    C     -1.69453635      0.20403896     -0.51064307
    C     -0.96980543      0.33713981      1.78951850
    N     -2.42934366      0.23785327     -1.67034123
    C     -0.39560486     -0.24495204     -0.89643455
    H     -1.18629228      0.58741569      2.83124131
    C      0.31801248     -0.14363861      1.42783197
    H     -3.42093144      0.47032988     -1.70026283
    C     -1.60106078     -0.21042990     -2.69463595
    N     -0.36282562     -0.47399120     -2.26139337
    C      0.61213941     -0.39158903      0.07027278
    C      1.33750965     -0.37833294      2.48483202
    C     -2.05958190     -0.36472384     -4.07814481
    H      1.60366475     -0.73808796     -0.23306364
    C      0.95732809     -0.94578503      3.73453322
    C      2.68507527     -0.03874713      2.24574549
    C     -3.36104833      0.00451979     -4.48261147
    C     -1.16467822     -0.89803763     -5.03152081
    H     -0.09438949     -1.20177103      3.89493683
    C      1.88847808     -1.23397939      4.73633794
    H      2.98199400      0.43470250      1.30455172
    C      3.60215246     -0.27889717      3.27450756
    H     -4.07900870      0.42219595     -3.76932504
    C     -3.74727562     -0.16215512     -5.81692363
    H     -0.16096719     -1.17566402     -4.69404675
    C     -1.54210238     -1.06904630     -6.37213561
    H      1.57889052     -1.67161049      5.68947044
    C      3.24207864     -0.94853571      4.48642507
    N      4.95051889      0.01246676      3.42351768
    H     -4.75514276      0.12568082     -6.12787428
    C     -2.84818741     -0.69324199     -6.75361041
    C     -0.57067410     -1.64367976     -7.37807274
    N      4.37203543     -1.21513377      5.25412627
    H      5.54048344      0.49150430      2.74880080
    C      5.34703980     -0.46974510      4.66465260
    H     -3.16217547     -0.81760682     -7.79620807
    H     -0.76339432     -1.25647799     -8.39170961
    H     -0.66197959     -2.74381775     -7.42409115
    H      0.47096055     -1.40992165     -7.10983517
    C      6.69545579     -0.17447099      5.23435823
    H      6.79885638     -0.71535706      6.18544002
    H      6.82680341      0.90387700      5.42903338
    H      7.50419681     -0.49763116      4.55622294
    O     -2.65715299      3.52347773      3.49972182
    H     -3.07506826      2.88884287      4.08987894
    H     -2.24495405      4.15019544      4.08956666
