51
Energy:    -57.97134038
    H      2.52326770     -3.89809844      1.27303813
    O      2.83487249     -3.07092108      1.70187502
    S      1.56914961     -2.50802454      2.63899831
    C      0.69477246     -1.42166931      1.53189131
    O      2.23675735     -1.67246611      3.65741867
    O      0.72438501     -3.66788516      2.98089319
    C      1.08458828     -0.07966826      1.41111962
    C     -0.33517525     -1.90583391      0.71607677
    N      2.01914839      0.70279617      2.04383742
    C      0.45271549      0.77678972      0.45987438
    H     -0.62481638     -2.95653471      0.79870137
    C     -0.99950013     -1.05711782     -0.21063433
    H      2.59366663      0.37536308      2.81901700
    C      1.91404428      1.98260782      1.50790342
    N      1.00349745      2.04503509      0.52943661
    C     -0.56818379      0.27748557     -0.36476738
    C     -2.13945309     -1.58734915     -1.00503157
    C      2.72122993      3.11118797      1.98002965
    H     -1.04857237      0.94051811     -1.08920625
    C     -3.08942719     -2.46022440     -0.40176463
    C     -2.27914459     -1.22156062     -2.35968985
    C      3.71987365      2.95837256      2.96649160
    C      2.48849334      4.38827764      1.42408211
    H     -2.95953363     -2.72798003      0.65123232
    C     -4.20543874     -2.93970822     -1.09337326
    H     -1.53331345     -0.58373337     -2.84453343
    C     -3.36826565     -1.75026314     -3.06064844
    H      3.92674131      1.98215873      3.41694729
    C      4.46327898      4.06901079      3.38022127
    H      1.70991428      4.48117592      0.66015440
    C      3.22863605      5.50844833      1.83193918
    H     -4.92598556     -3.60788321     -0.61360096
    C     -4.38215117     -2.53731810     -2.42867245
    N     -3.75328952     -1.68815888     -4.39222220
    H      5.23682879      3.94784643      4.14329130
    C      4.22160104      5.33198352      2.81960851
    C      2.96361047      6.86827796      1.22662039
    N     -5.43305179     -2.78158970     -3.30797971
    H     -3.26036470     -1.20636378     -5.13899968
    C     -4.93602479     -2.40602760     -4.51861355
    H      4.81160187      6.19402296      3.15104784
    H      3.87375930      7.48960585      1.21628757
    H      2.20065394      7.41341543      1.81098369
    H      2.59022523      6.78304954      0.19467244
    C     -5.54463449     -2.70030709     -5.85014305
    H     -6.50146135     -3.21678968     -5.69034912
    H     -4.89354014     -3.35051755     -6.45947670
    H     -5.73490727     -1.77706385     -6.42440797
    O      1.78212028     -5.28444966      0.76720337
    H      1.15097506     -5.58217258      1.42956036
    H      1.77582639     -5.97974925      0.11366006
