51
Energy:    -57.96428781
    H      4.23395428     -2.12303492     -0.86471532
    O      3.46786893     -2.73519413     -0.92467638
    S      2.50220654     -2.17744320     -2.17107802
    C      1.36536982     -1.08279612     -1.34661513
    O      1.74986304     -3.37718399     -2.59017144
    O      3.36623331     -1.41109489     -3.08866399
    C      0.18689132     -1.59066196     -0.78024977
    C      1.66590016      0.27533165     -1.18558262
    N     -0.40335312     -2.83045714     -0.75779077
    C     -0.68598377     -0.74039819     -0.03675022
    H      2.59383961      0.66512258     -1.61182481
    C      0.78952365      1.14341596     -0.47930092
    H     -0.03325106     -3.63773270     -1.25730819
    C     -1.59863487     -2.70368903     -0.05677624
    N     -1.77498296     -1.46482547      0.41704697
    C     -0.36762156      0.61663061      0.13263793
    C      1.10430580      2.59443912     -0.39474933
    C     -2.53515231     -3.81619597      0.12600343
    H     -1.04253225      1.26162248      0.70156504
    C      1.63617735      3.27987834     -1.52416455
    C      0.87265549      3.29229913      0.80847282
    C     -2.25074360     -5.11973671     -0.33621103
    C     -3.75752753     -3.56908515      0.78852668
    H      1.80564986      2.71617143     -2.44659697
    C      1.89641901      4.65309501     -1.50806356
    H      0.50199729      2.76749483      1.69467480
    C      1.18802160      4.65500250      0.83372624
    H     -1.31200837     -5.34571308     -0.85235913
    C     -3.17932332     -6.14646642     -0.13395676
    H     -3.95462670     -2.55077926      1.13867811
    C     -4.69541664     -4.59183773      0.99657040
    H      2.30316923      5.16355812     -2.38545097
    C      1.61808765      5.36765199     -0.32988319
    N      1.18414434      5.60574744      1.84429936
    H     -2.95621549     -7.15522363     -0.49168263
    C     -4.38983628     -5.88702461      0.52569718
    C     -5.99977423     -4.30752636      1.70622126
    N      1.69002636      6.73318827     -0.07031145
    H      0.93003707      5.44979359      2.81583726
    C      1.59213979      6.81049992      1.28547545
    H     -5.10849042     -6.70004810      0.67930068
    H     -6.36766657     -5.19554768      2.24529394
    H     -6.78195017     -4.01541020      0.98260053
    H     -5.89338867     -3.48320870      2.42787180
    C      1.87478273      8.01511550      2.12153245
    H      2.11308596      8.85524991      1.45430554
    H      2.73277366      7.84938696      2.79560263
    H      1.00529335      8.29411468      2.74162089
    O      5.44209873     -1.00713044     -1.04470656
    H      5.49095709     -0.72498120     -1.96324054
    H      6.18500684     -0.57438304     -0.63068092
