51
Energy:    -57.95699005
    H      2.51539249     -3.90044613      1.28003418
    O      2.82757944     -3.07329760      1.70850309
    S      1.56142708     -2.50779800      2.64347658
    C      0.68996058     -1.42127709      1.53423925
    O      2.22887110     -1.67220736      3.66197781
    O      0.71463632     -3.66618290      2.98536228
    C      1.08176906     -0.07992371      1.41272289
    C     -0.33960146     -1.90479005      0.71755189
    N      2.01658730      0.70184895      2.04591431
    C      0.45229152      0.77651330      0.45987208
    H     -0.63078744     -2.95501616      0.80077953
    C     -1.00157313     -1.05602768     -0.21079931
    H      2.58966105      0.37435087      2.82213495
    C      1.91392439      1.98130431      1.50865804
    N      1.00472053      2.04406779      0.52896467
    C     -0.56823151      0.27784022     -0.36561680
    C     -2.14123082     -1.58543683     -1.00616797
    C      2.72204864      3.10921720      1.98077317
    H     -1.04678118      0.94085564     -1.09128737
    C     -3.09317325     -2.45644969     -0.40331208
    C     -2.27868231     -1.22071738     -2.36134353
    C      3.71921515      2.95595256      2.96865874
    C      2.49177543      4.38610665      1.42334194
    H     -2.96499821     -2.72340350      0.65009896
    C     -4.20895198     -2.93504858     -1.09590860
    H     -1.53135647     -0.58436267     -2.84582032
    C     -3.36762603     -1.74858040     -3.06320977
    H      3.92416702      1.97987584      3.42028576
    C      4.46360956      4.06595655      3.38231210
    H      1.71430549      4.47936000      0.65832867
    C      3.23292783      5.50564210      1.83110966
    H     -4.93102861     -3.60179031     -0.61644243
    C     -4.38339903     -2.53365891     -2.43180663
    N     -3.75085508     -1.68718756     -4.39533417
    H      5.23601264      3.94444325      4.14648747
    C      4.22438167      5.32873698      2.82021727
    C      2.97054240      6.86526967      1.22418895
    N     -5.43350384     -2.77730957     -3.31223622
    H     -3.25631266     -1.20676223     -5.14192462
    C     -4.93440942     -2.40355408     -4.52257857
    H      4.81513693      6.19027596      3.15161406
    H      3.88155402      7.48534142      1.21444876
    H      2.20758395      7.41199406      1.80706531
    H      2.59836556      6.77959275      0.19184169
    C     -5.54171216     -2.69823844     -5.85461517
    H     -6.49944993     -3.21326215     -5.69557134
    H     -4.89072758     -3.34990579     -6.46250803
    H     -5.72998284     -1.77527009     -6.42998077
    O      1.78819919     -5.28480515      0.77202375
    H      1.15601517     -5.58090780      1.43411633
    H      1.78171344     -5.98092829      0.11935959
