51
Energy:    -57.93225504
    H      2.52456873     -3.89639814      1.27417929
    O      2.83652627     -3.06867767      1.70170979
    S      1.57182248     -2.50497681      2.63972507
    C      0.69589590     -1.42003958      1.53245237
    O      2.24049181     -1.66814210      3.65639955
    O      0.72770066     -3.66461852      2.98394224
    C      1.08529974     -0.07809846      1.40970185
    C     -0.33493855     -1.90532418      0.71842522
    N      2.02046678      0.70526107      2.04041212
    C      0.45211083      0.77716471      0.45825679
    H     -0.62427153     -2.95598842      0.80258038
    C     -1.00054842     -1.05778169     -0.20843789
    H      2.59598404      0.37881314      2.81526606
    C      1.91446290      1.98444846      1.50316654
    N      1.00272477      2.04559595      0.52572878
    C     -0.56968284      0.27673242     -0.36459144
    C     -2.14135309     -1.58913057     -1.00086333
    C      2.72199335      3.11371780      1.97304986
    H     -1.05107588      0.93885519     -1.08919560
    C     -3.09042614     -2.46151386     -0.39547028
    C     -2.28275013     -1.22489330     -2.35576262
    C      3.72185586      2.96220857      2.95847815
    C      2.48833349      4.39013556      1.41594773
    H     -2.95921014     -2.72805949      0.65766969
    C     -4.20717555     -2.94199495     -1.08519317
    H     -1.53763052     -0.58746487     -2.84222203
    C     -3.37261060     -1.75459828     -3.05481254
    H      3.92945997      1.98654271      3.40978145
    C      4.46553919      4.07345777      3.37006206
    H      1.70881563      4.48202131      0.65285540
    C      3.22874524      5.51090997      1.82165226
    H     -4.92701096     -3.60977183     -0.60380140
    C     -4.38557741     -2.54114164     -2.42072991
    N     -3.75925178     -1.69406743     -4.38599007
    H      5.24003238      3.95330400      4.13233456
    C      4.22293516      5.33575159      2.80832137
    C      2.96272049      6.87000575      1.21512486
    N     -5.43748887     -2.78660893     -3.29849417
    H     -3.26732313     -1.21301544     -5.13390263
    C     -4.94199620     -2.41231074     -4.51014795
    H      4.81316419      6.19827940      3.13807956
    H      3.87273298      7.49150084      1.20299599
    H      2.20036092      7.41564982      1.79979436
    H      2.58810835      6.78354328      0.18372436
    C     -5.55215233     -2.70820738     -5.84061091
    H     -6.50868343     -3.22469834     -5.67908273
    H     -4.90166413     -3.35897449     -6.44999770
    H     -5.74330033     -1.78564806     -6.41568372
    O      1.80144617     -5.28034536      0.77673910
    H      1.16803665     -5.57890782      1.43655184
    H      1.79378701     -5.97250095      0.11988144
