51
Energy:    -57.84712543
    H      2.49407252     -3.92200893      1.24866688
    O      2.81201286     -3.09928204      1.68139706
    S      1.55127543     -2.53213763      2.62267032
    C      0.68360750     -1.43391710      1.52201005
    O      2.22585006     -1.70658683      3.64465512
    O      0.69856671     -3.68765612      2.95950985
    C      1.08290094     -0.09413977      1.40768401
    C     -0.35058265     -1.90653011      0.70478996
    N      2.02366105      0.67837873      2.04342813
    C      0.45623881      0.77166189      0.46146359
    H     -0.64765632     -2.95554027      0.78235230
    C     -1.00972728     -1.04836317     -0.21690297
    H      2.59658376      0.34289074      2.81634104
    C      1.92719344      1.96162910      1.51413379
    N      1.01615365      2.03556316      0.53692846
    C     -0.56902021      0.28389025     -0.36467003
    C     -2.15422849     -1.56636357     -1.01282857
    C      2.74290193      3.08198103      1.99118326
    H     -1.04536336      0.95403232     -1.08522802
    C     -3.10983218     -2.43548963     -0.41304987
    C     -2.29263193     -1.19267350     -2.36546090
    C      3.74139713      2.91699130      2.97583280
    C      2.51876598      4.36352470      1.44199214
    H     -2.98082173     -2.70954033      0.63843504
    C     -4.22992809     -2.90344055     -1.10595397
    H     -1.54273185     -0.55773067     -2.84780773
    C     -3.38619961     -1.70998584     -3.06799324
    H      3.94171477      1.93703550      3.42109393
    C      4.49314103      4.02015641      3.39446016
    H      1.74011993      4.46588923      0.67934357
    C      3.26730980      5.47627523      1.85479890
    H     -4.95476675     -3.56888493     -0.62885890
    C     -4.40507041     -2.49298432     -2.43900305
    N     -3.77208021     -1.63833121     -4.39883913
    H      5.26655478      3.88956726      4.15611208
    C      4.25995831      5.28767147      2.84054104
    C      3.01142937      6.84103871      1.25669202
    N     -5.45855818     -2.72523954     -3.31847052
    H     -3.27645475     -1.15626803     -5.14365353
    C     -4.96004795     -2.34706632     -4.52768083
    H      4.85644106      6.14376489      3.17576838
    H      3.92599205      7.45588470      1.24859760
    H      2.25297063      7.38862931      1.84460601
    H      2.63642749      6.76375332      0.22470483
    C     -5.57205968     -2.63018250     -5.86007111
    H     -6.53240144     -3.14061643     -5.70193537
    H     -4.92623695     -3.28191435     -6.47337658
    H     -5.75628398     -1.70268183     -6.42942682
    O      1.78103077     -5.30641403      0.76633547
    H      1.15157744     -5.60475785      1.43002174
    H      1.77683482     -6.00348183      0.11466157
