51
Energy:    -57.84664435
    H     -4.70446285      0.51556429      0.88504976
    O     -4.28935652     -0.22205601      1.38387240
    S     -3.13531184      0.46158970      2.38283006
    C     -1.65835743      0.41572699      1.38940603
    O     -2.98200854     -0.53114220      3.46542854
    O     -3.53676358      1.85975879      2.62727981
    C     -0.84872956     -0.72970119      1.38695480
    C     -1.32822598      1.48263468      0.54472728
    N     -0.87307110     -1.91647179      2.07758353
    C      0.28595259     -0.81452001      0.52500748
    H     -1.97088713      2.36670188      0.53458665
    C     -0.18123517      1.42916602     -0.29312307
    H     -1.54685706     -2.12446364      2.81306899
    C      0.22954436     -2.65640071      1.66172979
    N      0.92288706     -2.03069987      0.70352086
    C      0.59935833      0.25431497     -0.32994434
    C      0.18004343      2.61171825     -1.11941175
    C      0.56636625     -3.96671543      2.22544190
    H      1.47136357      0.18236583     -0.98540386
    C      0.04690043      3.92604901     -0.58733977
    C      0.65771302      2.42830784     -2.43341570
    C     -0.25285068     -4.60462405      3.18236678
    C      1.74807363     -4.60618420      1.79087389
    H     -0.32480717      4.04165153      0.43532221
    C      0.42464532      5.06324529     -1.30692466
    H      0.72621252      1.42542002     -2.86664180
    C      0.98114339      3.57467101     -3.16710382
    H     -1.17622228     -4.13721896      3.53959972
    C      0.11439318     -5.85673937      3.68702524
    H      2.36595801     -4.09227119      1.04756150
    C      2.12522479     -5.86196336      2.29059051
    H      0.31717059      6.06501774     -0.88180334
    C      0.95235690      4.88691425     -2.59789207
    N      1.37397364      3.77302464     -4.48297967
    H     -0.52226276     -6.34917545      4.42696573
    C      1.29106929     -6.48066126      3.24662791
    C      3.39527742     -6.53005470      1.81476883
    N      1.48705281      5.81787706     -3.48369709
    H      1.49948350      3.05227784     -5.18835143
    C      1.56373808      5.13778869     -4.66069164
    H      1.56719470     -7.46216945      3.64845055
    H      3.31125101     -7.62831571      1.85066191
    H      4.24942569     -6.24510912      2.45507716
    H      3.64282590     -6.23475242      0.78369497
    C      1.81899017      5.73260200     -6.00643325
    H      2.00195383      6.80926132     -5.88340878
    H      0.95490361      5.59924423     -6.67989826
    H      2.70051942      5.27925521     -6.49196890
    O     -5.28472370      1.92662099      0.24945933
    H     -5.76850408      2.32078573     -0.48285938
    H     -5.18832902      2.64185432      0.87375842
