51
Energy:    -57.84662871
    H      2.53838255     -4.01080166      0.80695455
    O      2.86188186     -3.23277475      1.31217065
    S      1.61889600     -2.76921969      2.33060565
    C      0.72351164     -1.57329986      1.36186853
    O      2.31137675     -2.04424831      3.41500636
    O      0.77841906     -3.95769547      2.56918446
    C      1.11459198     -0.22628150      1.37219925
    C     -0.32568092     -1.96953194      0.52344376
    N      2.06526698      0.48569660      2.06161148
    C      0.46440840      0.72464821      0.52920163
    H     -0.61657992     -3.02293437      0.50314367
    C     -1.00778906     -1.02882417     -0.29523650
    H      2.65580552      0.07923820      2.78565760
    C      1.95218013      1.81426022      1.66371692
    N      1.02040343      1.97845774      0.71755555
    C     -0.57597875      0.31426736     -0.31977195
    C     -2.16662414     -1.47301922     -1.11468572
    C      2.77300022      2.88723069      2.23216546
    H     -1.07028007      1.04918794     -0.96067362
    C     -3.10564012     -2.40309010     -0.58411040
    C     -2.33514754     -0.96861857     -2.42066958
    C      3.79275707      2.63224204      3.17494102
    C      2.53186181      4.21525129      1.81693592
    H     -2.95329056     -2.77869530      0.43229422
    C     -4.23811347     -2.80748783     -1.29662397
    H     -1.59831045     -0.28446762     -2.85330058
    C     -3.44109186     -1.42101863     -3.14818270
    H      4.00660369      1.61443308      3.51704122
    C      4.54846703      3.69346782      3.68488543
    H      1.73685732      4.38741456      1.08431823
    C      3.28420871      5.28656942      2.32210182
    H     -4.94987592     -3.52131453     -0.87274585
    C     -4.44311033     -2.26866489     -2.57873750
    N     -3.85528853     -1.22088813     -4.45721971
    H      5.33833960      3.49328333      4.41383227
    C      4.29824387      5.00793762      3.26375303
    C      3.00994589      6.70202640      1.86707715
    N     -5.51393411     -2.41969836     -3.45496083
    H     -3.37755784     -0.66458775     -5.16083983
    C     -5.04268239     -1.92095587     -4.63092628
    H      4.89802011      5.83054588      3.66952283
    H      3.92150666      7.32044265      1.90090471
    H      2.26174439      7.18415224      2.52168175
    H      2.61357010      6.72453733      0.84044358
    C     -5.68147926     -2.07513650     -5.97187516
    H     -6.63608514     -2.60474052     -5.84517389
    H     -5.04598021     -2.65910137     -6.65970580
    H     -5.88163309     -1.09718417     -6.44294806
    O      1.78972147     -5.33599507      0.16264947
    H      1.77505725     -5.95068486     -0.57737852
    H      1.17712419     -5.71432960      0.78889827
