51
Energy:    -57.84524272
    H      2.10451884     -4.25156857      0.82233242
    O      2.71851370     -3.48825558      0.89706254
    S      2.15503245     -2.53816742      2.15282062
    C      1.06947099     -1.38673612      1.33663970
    O      3.35407271     -1.79533985      2.59048218
    O      1.37981544     -3.41241637      3.05311133
    C      1.58471893     -0.20211887      0.79009552
    C     -0.28839619     -1.68086916      1.16215913
    N      2.82638067      0.38459014      0.78429411
    C      0.74219398      0.68351474      0.05290096
    H     -0.68386402     -2.61340136      1.57286571
    C     -1.14898772     -0.79219310      0.46210407
    H      3.62909039      0.00517396      1.28418156
    C      2.70799170      1.58980316      0.09899444
    N      1.47295548      1.77644852     -0.38083787
    C     -0.61456935      0.37166343     -0.13017289
    C     -2.60031776     -1.10134711      0.36326122
    C      3.82450001      2.52534935     -0.06320150
    H     -1.25361895      1.05631905     -0.69414034
    C     -3.29510730     -1.64664104      1.48049666
    C     -3.28916731     -0.85100266     -0.84140801
    C      5.12397198      2.23061665      0.40397539
    C      3.58558622      3.75749006     -0.71046610
    H     -2.73828490     -1.83053360      2.40434748
    C     -4.66894414     -1.90244118      1.45138307
    H     -2.75716397     -0.46976806     -1.71878685
    C     -4.65259109     -1.16182768     -0.88036182
    H      5.34360157      1.28416994      0.90865299
    C      6.15481642      3.15875632      0.22160906
    H      2.57030920      3.96250610     -1.06484159
    C      4.61252114      4.69503015     -0.89851996
    H     -5.18665264     -2.31968648      2.31954853
    C     -5.37452492     -1.60571453      0.27228253
    N     -5.59632218     -1.14111691     -1.89728448
    H      7.16041578      2.92765897      0.58313351
    C      5.90351706      4.37903405     -0.42303494
    C      4.33697573      6.00990829     -1.59203001
    N     -6.73844384     -1.66989776      0.00237942
    H     -5.43291473     -0.87411887     -2.86412886
    C     -6.80610525     -1.55309574     -1.35242545
    H      6.71970434      5.09725106     -0.56112065
    H      5.22978157      6.38248301     -2.11986693
    H      4.04218737      6.78292346     -0.85970128
    H      3.51734777      5.91599844     -2.32071921
    C     -8.00575222     -1.82050697     -2.20055007
    H     -8.85117365     -2.06541829     -1.54245658
    H     -7.83791428     -2.66962664     -2.88524797
    H     -8.27789056     -0.94170449     -2.81047542
    O      0.98506340     -5.45935928      0.96314488
    H      0.55408431     -6.19096310      0.51069281
    H      0.68956782     -5.54085204      1.86682695
