51
Energy:    -57.84520288
    H      4.03013616      2.44449801      0.98157701
    O      3.21640022      2.99289303      1.02971969
    S      2.27139181      2.34629602      2.24872683
    C      1.24411085      1.17350758      1.38869770
    O      1.41647350      3.47753828      2.66157500
    O      3.17365781      1.64135002      3.17865328
    C      0.04146508      1.59188637      0.80038540
    C      1.65579332     -0.15447321      1.22212770
    N     -0.64544666      2.78080847      0.77585979
    C     -0.74408982      0.68286315      0.02952142
    H      2.60238554     -0.47361910      1.66574924
    C      0.86735971     -1.08194494      0.48822810
    H     -0.35214895      3.60953470      1.29100666
    C     -1.81111295      2.56674439      0.04675853
    N     -1.87735674      1.32300960     -0.44224611
    C     -0.31454186     -0.64250828     -0.14498680
    C      1.29900216     -2.50221770      0.39759092
    C     -2.82940889      3.60291567     -0.14706476
    H     -0.92306147     -1.33303857     -0.73496036
    C      1.85914486     -3.15533159      1.53248096
    C      1.15033741     -3.20315164     -0.81690667
    C     -2.66039732      4.91986588      0.33337904
    C     -4.01328994      3.26631770     -0.83940098
    H      1.96272924     -2.59000905      2.46363546
    C      2.22871046     -4.50314961      1.50974647
    H      0.75837768     -2.69994514     -1.70646374
    C      1.57419678     -4.53599250     -0.84744321
    H     -1.75428190      5.21436687      0.87275091
    C     -3.66349352      5.87138451      0.11948346
    H     -4.12056831      2.23941794     -1.20322681
    C     -5.02521844      4.21319260     -1.05933198
    H      2.65568347     -4.98908565      2.39144212
    C      2.03431297     -5.22472419      0.31907073
    N      1.66853350     -5.47292160     -1.86648857
    H     -3.52969805      6.89075893      0.49138473
    C     -4.83462946      5.52341066     -0.56982765
    C     -6.28679079      3.83348875     -1.80098297
    N      2.22094256     -6.57725110      0.04873324
    H      1.42410299     -5.32713674     -2.84207993
    C      2.15927324     -6.64731351     -1.30957642
    H     -5.61249091      6.27813442     -0.73227336
    H     -6.71265722      4.69516199     -2.34013323
    H     -7.05874810      3.47201290     -1.09800707
    H     -6.09901441      3.02821791     -2.52753366
    C      2.55563210     -7.81633515     -2.14997220
    H      2.84571788     -8.64201582     -1.48521083
    H      3.41216987     -7.57532885     -2.80284585
    H      1.72504261     -8.15702682     -2.79216554
    O      5.32058492      1.42801307      1.16394538
    H      6.10125620      1.06135637      0.73754741
    H      5.39352082      1.13557497      2.06935154
