51
Energy:    -57.83537874
    H      3.73221315     -2.51770851      1.70668053
    O      2.99538227     -2.42283894      2.34956545
    S      1.66719865     -3.18346476      1.67541142
    C      0.85487984     -1.87196040      0.78632005
    O      0.83081436     -3.52150119      2.84469782
    O      2.17260767     -4.19713747      0.73051705
    C     -0.06578090     -1.04277333      1.44384694
    C      1.17806278     -1.60295799     -0.54932642
    N     -0.60314239     -1.02794263      2.70757463
    C     -0.65316031      0.06878820      0.76777937
    H      1.90959795     -2.23908579     -1.05419147
    C      0.57492709     -0.52213238     -1.24824226
    H     -0.41037157     -1.74221560      3.40817477
    C     -1.50163220      0.03329103      2.75943180
    N     -1.52429669      0.72952791      1.61700870
    C     -0.31037756      0.33962947     -0.56665647
    C      0.88541365     -0.31428153     -2.68772172
    C     -2.31429507      0.33009995      3.94249077
    H     -0.76637895      1.19156519     -1.07799320
    C      1.00822517     -1.43074502     -3.56334697
    C      1.05647924      0.99394949     -3.18539849
    C     -2.18514271     -0.40062386      5.14378648
    C     -3.25226070      1.38337656      3.87156216
    H      0.86970389     -2.43561966     -3.15297297
    C      1.24543412     -1.28144144     -4.93270790
    H      1.00404854      1.85693763     -2.51408374
    C      1.34885007      1.13225191     -4.54644432
    H     -1.46688533     -1.22212259      5.23291665
    C     -2.98475106     -0.07457019      6.24453917
    H     -3.33308164      1.93589430      2.92997142
    C     -4.05878818      1.71847897      4.96981568
    H      1.33498672     -2.15018795     -5.59080123
    C      1.36400721      0.02122155     -5.44766282
    N      1.66887780      2.22727956     -5.33618206
    H     -2.88197078     -0.64105919      7.17398117
    C     -3.91258828      0.97414989      6.16028190
    C     -5.05898012      2.84819248      4.87416289
    N      1.50381299      0.45736928     -6.76199592
    H      1.75091233      3.19080200     -5.02365548
    C      1.85768456      1.76573805     -6.63291042
    H     -4.53220826      1.22083203      7.02992780
    H     -5.21961830      3.32874383      5.85283126
    H     -6.03890418      2.47334058      4.52776299
    H     -4.72886272      3.61792791      4.15993122
    C      2.38810207      2.64559267     -7.71664936
    H      2.38462865      2.07989936     -8.65887280
    H      3.42199061      2.96979004     -7.50699358
    H      1.76895532      3.55002397     -7.84712286
    O      4.80786713     -2.88624668      0.50709394
    H      5.64615505     -2.64763235      0.09961809
    H      4.57165903     -3.70844436      0.08425034
