51
Energy:    -57.25704056
    H     -4.66370242     -1.12359284     -0.51725781
    O     -4.49320697     -0.48204082      0.20700962
    S     -3.84411763      0.88553602     -0.50399222
    C     -2.09043860      0.58390264     -0.44061893
    O     -4.15269866      1.95849709      0.46273954
    O     -4.30193073      0.91268329     -1.90594307
    C     -1.35748177      0.93863837      0.70150447
    C     -1.43744539     -0.07607538     -1.48885072
    N     -1.66916263      1.58578035      1.87199466
    C      0.02985247      0.61794519      0.80205597
    H     -2.01445973     -0.36811070     -2.37002086
    C     -0.04853639     -0.37046504     -1.42024675
    H     -2.58595232      1.98613872      2.06537731
    C     -0.49739078      1.67387704      2.61723268
    N      0.53081027      1.06880901      2.01135705
    C      0.67179149     -0.05828594     -0.24780104
    C      0.62606806     -1.00356294     -2.58463539
    C     -0.42833515      2.35565575      3.91282293
    H      1.73507933     -0.29824577     -0.16392460
    C      0.29506165     -0.60242356     -3.91046153
    C      1.59794806     -2.00300382     -2.37254770
    C     -1.57096363      2.90837991      4.53140613
    C      0.82387735      2.45672201      4.55776593
    H     -0.46144884      0.17605921     -4.04839069
    C      0.94080767     -1.13040668     -5.03204742
    H      1.83144709     -2.34746334     -1.36013136
    C      2.19994409     -2.56626325     -3.50276609
    H     -2.55684341      2.84626034      4.05930421
    C     -1.44965468      3.54739139      5.77007052
    H      1.69470298      2.01941745      4.05893888
    C      0.95622569      3.09535754      5.80017069
    H      0.67504394     -0.80924710     -6.04301387
    C      1.94898572     -2.08853655     -4.82776047
    N      3.09747621     -3.61076969     -3.67197421
    H     -2.33610367      3.97345850      6.24757551
    C     -0.19955714      3.64072918      6.39962528
    C      2.30575319      3.19554640      6.47435444
    N      2.80465766     -2.69933195     -5.73989890
    H      3.49594577     -4.18663876     -2.93551319
    C      3.35157273     -3.72637529     -5.03294566
    H     -0.11773545      4.14251984      7.37048899
    H      2.20773708      3.21892088      7.57179349
    H      2.82531108      4.12238895      6.17140147
    H      2.95488059      2.34929702      6.20215488
    C      4.13815587     -4.86337861     -5.59729255
    H      4.26138368     -4.70083106     -6.67719959
    H      3.62399868     -5.82798115     -5.44507782
    H      5.13837277     -4.93574054     -5.13610722
    O     -4.82703706     -2.00806153     -1.92199195
    H     -4.74216036     -2.90336398     -2.26394145
    H     -4.91652780     -1.46971578     -2.70479158
