51
Energy:    -57.23792996
    H      2.54850749      3.79549685      1.51415687
    O      1.99266269      3.98413793      0.72632941
    S      0.40280652      3.75725609      1.19322232
    C      0.10399142      2.04606573      0.80216465
    O     -0.36105829      4.57957528      0.23335791
    O      0.33898920      3.96073362      2.65278398
    C     -0.31605910      1.68285616     -0.48591352
    C      0.35619991      1.04025471      1.74317266
    N     -0.65410536      2.38977135     -1.61373471
    C     -0.46905316      0.30815135     -0.83866061
    H      0.70124633      1.32456437      2.74057027
    C      0.17378406     -0.33173780      1.41944284
    H     -0.69299938      3.40736540     -1.64803654
    C     -1.02734964      1.46343511     -2.58264125
    N     -0.89161338      0.20356847     -2.15287188
    C     -0.19820990     -0.69352435      0.10731176
    C      0.37776482     -1.36674585      2.46770578
    C     -1.50831941      1.85249724     -3.91134127
    H     -0.31996571     -1.74395587     -0.17011600
    C     -0.06672544     -1.13472082      3.80070458
    C      1.01207168     -2.58214024      2.13772809
    C     -1.55512430      3.20115543     -4.32688836
    C     -1.93439875      0.84044215     -4.79926180
    H     -0.55722986     -0.18406544      4.03098214
    C      0.05484601     -2.09885820      4.80537790
    H      1.39350408     -2.75514363      1.12642193
    C      1.18002039     -3.51994388      3.16211648
    H     -1.23104183      4.00994923     -3.66392445
    C     -2.02157863      3.51767716     -5.60734740
    H     -1.88751509     -0.19755784     -4.45464760
    C     -2.40369529      1.14727560     -6.08555686
    H     -0.29384352     -1.90420024      5.82339110
    C      0.63740004     -3.33424980      4.47280098
    N      1.82901298     -4.74481592      3.22282985
    H     -2.05566835      4.56260341     -5.92719585
    C     -2.44185489      2.50232410     -6.47925395
    C     -2.85761187      0.05007622     -7.02145177
    N      0.79439990     -4.48705577      5.23675872
    H      2.33291065     -5.19671729      2.46477293
    C      1.66490462     -5.24073957      4.51019195
    H     -2.80388120      2.76295155     -7.48029106
    H     -2.69606029      0.32676587     -8.07590420
    H     -3.93730883     -0.14796457     -6.89578426
    H     -2.32412954     -0.89239621     -6.82462871
    C      2.38317446     -6.46050186      4.98584454
    H      2.04229189     -6.69147658      6.00479290
    H      3.47558634     -6.30532308      5.00910043
    H      2.17811491     -7.33205983      4.34032205
    O      3.19082764      3.55064120      3.04398865
    H      3.84698428      3.20430058      3.65652978
    H      2.49439868      3.87400251      3.61057859
