51
Energy:    -56.94845543
    H      1.59951767     -4.13833386     -1.87176646
    O      0.62301834     -4.10559635     -1.76881837
    S      0.07698288     -2.86422096     -2.74756217
    C      0.08392741     -1.45486700     -1.65941596
    O     -1.33091473     -3.22411942     -3.01087835
    O      1.07197950     -2.67911948     -3.82064892
    C     -1.02990243     -1.18679634     -0.85007659
    C      1.22068971     -0.64598932     -1.54004527
    N     -2.27427011     -1.75342807     -0.72177010
    C     -1.00066867     -0.11575095      0.09314033
    H      2.09423207     -0.86799952     -2.15837061
    C      1.25310692      0.44695853     -0.63183047
    H     -2.60833283     -2.51431265     -1.31138333
    C     -2.96371749     -1.01771388      0.23717564
    N     -2.20796721     -0.04916840      0.76741253
    C      0.14987782      0.67960520      0.21653153
    C      2.44910481      1.32977929     -0.58799498
    C     -4.35530235     -1.29563616      0.60377597
    H      0.16339784      1.49934050      0.93975227
    C      3.11207276      1.69953933     -1.79300287
    C      2.92533365      1.80268916      0.65215676
    C     -5.07168457     -2.38343501      0.05857953
    C     -4.99208770     -0.44540180      1.53426399
    H      2.72218725      1.32044567     -2.74255291
    C      4.20597827      2.56955868     -1.80508936
    H      2.44816327      1.49283362      1.58728188
    C      4.05455053      2.62831956      0.63610436
    H     -4.60752656     -3.06250660     -0.66399719
    C     -6.39816210     -2.60482996      0.44430307
    H     -4.41565623      0.39031197      1.94378840
    C     -6.32192540     -0.65886279      1.92784637
    H      4.70183297      2.84424469     -2.74023786
    C      4.65466801      3.08883713     -0.57822491
    N      4.83417579      3.18022463      1.64247122
    H     -6.95031818     -3.44853714      0.02167100
    C     -7.01856140     -1.75231282      1.36956748
    C     -6.98748806      0.26353017      2.92384013
    N      5.64292831      4.03163387     -0.31042295
    H      4.69814369      3.06097219      2.64249728
    C      5.83593862      3.92545815      1.03315092
    H     -8.05767483     -1.93707607      1.66481453
    H     -7.75538389     -0.26449429      3.51210211
    H     -7.48899965      1.10061035      2.40563081
    H     -6.25489515      0.69835848      3.62085445
    C      6.96589982      4.51686214      1.80994304
    H      7.58636290      5.11220530      1.12554689
    H      7.59834242      3.73553541      2.26549754
    H      6.60409971      5.17476384      2.61903390
    O      3.20923675     -4.05675675     -2.17613982
    H      4.04896872     -3.99271784     -1.71089877
    H      3.45672113     -4.07263443     -3.09760571
