51
Energy:    -56.83048008
    H      4.79376106     -0.49263821      0.33903977
    O      4.50260682     -0.05360779     -0.49023853
    S      3.73900792      1.36508775     -0.04154409
    C      2.03387793      0.87722656      0.11629185
    O      3.85551070      2.21632195     -1.24273742
    O      4.27641267      1.75728558      1.27495619
    C      1.19402618      0.88540109     -1.00713647
    C      1.53147720      0.40879507      1.33650759
    N      1.35221286      1.27832154     -2.31349611
    C     -0.14815112      0.40852605     -0.91332121
    H      2.19306612      0.38591135      2.20625896
    C      0.18655709     -0.03551295      1.45575641
    H      2.20033467      1.71688224     -2.66922201
    C      0.13434766      1.07309734     -2.95449329
    N     -0.77388941      0.51851535     -2.14336184
    C     -0.63754175     -0.07413128      0.31106137
    C     -0.33327703     -0.45375685      2.78487248
    C     -0.09663262      1.43175298     -4.35669129
    H     -1.66734488     -0.43552504      0.37506967
    C      0.02873278      0.27017747      3.95669201
    C     -1.18903669     -1.57026087      2.88238235
    C      0.93048981      1.94459611     -5.17873779
    C     -1.38952862      1.25355749     -4.89601336
    H      0.69310583      1.13359426      3.85428152
    C     -0.47782354     -0.05302133      5.21869527
    H     -1.44179520     -2.15801033      1.99422431
    C     -1.64746289     -1.92113244      4.15666198
    H      1.94408351      2.09368482     -4.79260520
    C      0.65642308      2.26936937     -6.51168593
    H     -2.16868935      0.85337938     -4.23938025
    C     -1.67472003      1.57597501     -6.23154839
    H     -0.19038254      0.51517362      6.10771673
    C     -1.37403594     -1.13150419      5.31792764
    N     -2.40045031     -2.98694504      4.62808794
    H      1.45374052      2.66512669     -7.14650642
    C     -0.63249112      2.08740549     -7.03454761
    C     -3.06574444      1.38022058     -6.79058086
    N     -2.09162172     -1.60419702      6.41285875
    H     -2.77165569     -3.75313462      4.07316625
    C     -2.55374938     -2.81592253      5.99827906
    H     -0.83427892      2.34423848     -8.08067547
    H     -3.03961293      1.16362587     -7.87082614
    H     -3.67328703      2.29281590     -6.65339565
    H     -3.59009045      0.55548135     -6.28415865
    C     -3.16113029     -3.87004203      6.86424528
    H     -3.23571520     -3.48000399      7.88899570
    H     -2.54502929     -4.78550860      6.88228736
    H     -4.17205916     -4.14835610      6.51938866
    O      5.09907380     -0.98971049      1.90314934
    H      5.12877750     -0.20131885      2.45383646
    H      5.04960184     -1.70730618      2.53021309
