51
Energy:    -57.98505709
    H     -4.16238862      1.72729186      1.69483495
    O     -3.92214412      0.84894977      2.06364215
    S     -2.48862684      1.05378671      2.90040798
    C     -1.24720193      0.70538842      1.67245365
    O     -2.49044491     -0.06088573      3.86919074
    O     -2.41419546      2.46982196      3.30673312
    C     -0.82687027     -0.61477924      1.45339285
    C     -0.73369991      1.72507469      0.86170302
    N     -1.10922756     -1.81763435      2.05289177
    C      0.09821524     -0.91807458      0.40941980
    H     -1.07657322      2.75047999      1.02193055
    C      0.21576429      1.44528242     -0.15843130
    H     -1.70478788     -1.90947027      2.87451278
    C     -0.34853395     -2.78718940      1.40675073
    N      0.35962074     -2.27749356      0.39229664
    C      0.59507637      0.10941174     -0.40848903
    C      0.79589830      2.56396778     -0.94817341
    C     -0.34480460     -4.19566495      1.81212426
    H      1.30494785     -0.13092011     -1.20442878
    C      1.13855760      3.79017479     -0.30997755
    C      1.00827633      2.40691388     -2.33332454
    C     -1.17559018     -4.68095756      2.84558225
    C      0.51803625     -5.08999303      1.14138962
    H      0.96518078      3.88656885      0.76613427
    C      1.73552902      4.84854754     -1.00076063
    H      0.71177974      1.48388059     -2.84151774
    C      1.55476880      3.49113282     -3.02821248
    H     -1.85701110     -4.01490462      3.38478259
    C     -1.13394600     -6.03583036      3.19188624
    H      1.15146289     -4.69026215      0.34302446
    C      0.56724200     -6.45059715      1.48091315
    H      1.99377760      5.78257269     -0.49407365
    C      2.00047154      4.68127755     -2.37116028
    N      1.80127259      3.72168014     -4.37404785
    H     -1.77911991     -6.40938528      3.99160078
    C     -0.27200613     -6.91325239      2.51736030
    C      1.49911738     -7.39250948      0.75276795
    N      2.66053064      5.51814257     -3.26626973
    H      1.60517426      3.08263142     -5.13951514
    C      2.36470809      4.98680152     -4.48441697
    H     -0.24958089     -7.97269020      2.79692003
    H      1.09557078     -8.41763877      0.72473066
    H      2.48001638     -7.43962716      1.25910289
    H      1.67733601     -7.06160967     -0.28180464
    C      2.59606421      5.63723051     -5.80857462
    H      3.10868913      6.59504531     -5.64240450
    H      1.64660360      5.83527433     -6.33515624
    H      3.22430136      5.01146866     -6.46591942
    O     -4.36992551      3.31501373      1.27876236
    H     -3.96223966      3.88179537      1.94076752
    H     -4.80507110      3.92576240      0.68864849
