51
Energy:    -57.98495819
    H      3.39713346     -2.77786121      1.98102302
    O      3.41723790     -1.84749479      2.29603911
    S      1.96001587     -1.56891281      3.06805145
    C      0.92190309     -0.94229075      1.76418963
    O      2.26089530     -0.44925439      3.98285996
    O      1.45278610     -2.87277252      3.53545256
    C      0.92216862      0.42769514      1.46311227
    C      0.15583758     -1.81059703      0.97682133
    N      1.52962617      1.52648898      2.01955850
    C      0.16603876      0.92862818      0.36084881
    H      0.17160787     -2.88013686      1.20160314
    C     -0.63137410     -1.32344208     -0.10179715
    H      2.09689574      1.48657516      2.86501644
    C      1.11533380      2.63758049      1.29152864
    N      0.32267256      2.30099256      0.26742575
    C     -0.58623360      0.04753639     -0.43245917
    C     -1.49124277     -2.26516652     -0.86696768
    C      1.51788261      4.00554126      1.63032475
    H     -1.16436769      0.43947919     -1.27349355
    C     -2.20568258     -3.29491432     -0.19058893
    C     -1.59943034     -2.13480754     -2.26686624
    C      2.41958934      4.28370356      2.68070549
    C      0.98456467      5.07368093      0.87610222
    H     -2.10599686     -3.37424444      0.89621256
    C     -3.06702402     -4.16828238     -0.86068457
    H     -1.02389826     -1.37271923     -2.80179169
    C     -2.42018755     -3.04799769     -2.93731039
    H      2.85244500      3.47907173      3.28394806
    C      2.77201510      5.60827461      2.96114912
    H      0.28855847      4.83264310      0.06623981
    C      1.33171955      6.40555115      1.14913371
    H     -3.60929822     -4.95225756     -0.32482208
    C     -3.22281184     -4.01175347     -2.24899212
    N     -2.67786454     -3.27473342     -4.28169965
    H      3.47137449      5.82096101      3.77416631
    C      2.23464517      6.65980494      2.20397509
    C      0.74871230      7.53607686      0.33194330
    N     -4.07125934     -4.66740249     -3.13640589
    H     -2.27395453     -2.76894835     -5.06516386
    C     -3.58880079     -4.32068173     -4.36145098
    H      2.51959282      7.69306880      2.43252624
    H      1.44031711      8.39232268      0.27669950
    H     -0.19028374      7.90131455      0.78542524
    H      0.51555739      7.21193696     -0.69380965
    C     -3.95798701     -4.95091503     -5.66394264
    H     -4.73830854     -5.70250837     -5.47951988
    H     -3.09329236     -5.45193955     -6.13219747
    H     -4.34807034     -4.20744594     -6.38049739
    O      3.13589536     -4.37765914      1.65017702
    H      2.55525299     -4.75804769      2.31640445
    H      3.38909383     -5.12374092      1.11179750
