51
Energy:    -57.98363735
    H     -2.75650917      3.80273979      1.05937298
    O     -3.23620532      2.94629125      1.09947905
    S     -2.50380967      2.03987618      2.29911039
    C     -1.25878575      1.12437132      1.41471494
    O     -3.55777816      1.08950029      2.70773501
    O     -1.86661308      2.98328696      3.23706166
    C     -1.58282496     -0.09986817      0.81160197
    C      0.02962653      1.64558277      1.24414700
    N     -2.71188387     -0.88124502      0.78588830
    C     -0.61961238     -0.79732407      0.02202753
    H      0.27437989      2.60862035      1.69949897
    C      1.01178925      0.94623480      0.49134636
    H     -3.55716718     -0.66410816      1.31175398
    C     -2.40988683     -2.01491015      0.03769638
    N     -1.16929617     -1.97222768     -0.46180638
    C      0.66467049     -0.25840796     -0.15618848
    C      2.39122845      1.49379020      0.39629066
    C     -3.36116901     -3.11160767     -0.16345478
    H      1.39728764     -0.79990024     -0.76055196
    C      3.00651678      2.08907483      1.53442487
    C      3.09112203      1.42039396     -0.82566514
    C     -4.68319220     -3.05773885      0.32959881
    C     -2.93523789     -4.25393674     -0.87610404
    H      2.44293475      2.13270471      2.47135589
    C      4.31941700      2.56786870      1.50688522
    H      2.61369077      1.00143949     -1.71712324
    C      4.38459466      1.95218212     -0.86007315
    H     -5.04585792     -2.18657700      0.88480023
    C     -5.55152681     -4.13208065      0.10795563
    H     -1.90628682     -4.27167173     -1.24939501
    C     -3.79827725     -5.33661401     -1.10395047
    H      4.77670830      3.02041688      2.39114299
    C      5.04382633      2.45024234      0.30790058
    N      5.30159166      2.13743062     -1.88476261
    H     -6.57507047     -4.08742099      0.48966216
    C     -5.11527158     -5.26082215     -0.60156463
    C     -3.32348334     -6.55213376     -1.86740870
    N      6.37414769      2.75067557      0.03000322
    H      5.16756796      1.89595029     -2.86277227
    C      6.43691924      2.71447163     -1.32957980
    H     -5.80540205     -6.09535905     -0.76988906
    H     -4.15228513     -7.03921762     -2.40626202
    H     -2.89396324     -7.30198405     -1.17893572
    H     -2.54272383     -6.28873488     -2.59722554
    C      7.56216331      3.21710441     -2.17288466
    H      8.36729460      3.56412829     -1.51020523
    H      7.24624824      4.06037083     -2.81091634
    H      7.96378413      2.42646177     -2.83011136
    O     -1.84557645      5.16797585      1.26763606
    H     -1.55501054      5.22992799      2.18274992
    H     -1.54680266      5.98477641      0.87498981
