51
Energy:    -57.98162420
    H      2.88788120     -3.79185355     -0.68082028
    O      3.36626985     -2.93434973     -0.64837799
    S      3.10973964     -2.29723038      0.87654108
    C      1.65131070     -1.29888476      0.66048543
    O      4.25595041     -1.38604057      1.06882212
    O      2.82058649     -3.42501690      1.78223641
    C      1.76733550      0.02873710      0.22291551
    C      0.37483439     -1.84314856      0.84795850
    N      2.83081744      0.85627748     -0.04197706
    C      0.60237817      0.80955745     -0.04325173
    H      0.28648197     -2.88355718      1.17112214
    C     -0.79514176     -1.06805955      0.62249707
    H      3.80203937      0.58922097      0.11163216
    C      2.30784021      2.09049970     -0.41531380
    N      0.97051153      2.07818556     -0.45762662
    C     -0.67317136      0.24949120      0.13245600
    C     -2.13132291     -1.65634089      0.90578135
    C      3.14919398      3.25081337     -0.72181179
    H     -1.56036858      0.85488569     -0.07144494
    C     -2.32474770     -2.47736568      2.05329961
    C     -3.20947903     -1.39726888      0.03464699
    C      4.55904235      3.17345379     -0.73140773
    C      2.52240518      4.48102890     -1.01830384
    H     -1.47258813     -2.66226498      2.71436262
    C     -3.57398110     -3.00707085      2.38876548
    H     -3.06300131     -0.80088105     -0.87145832
    C     -4.44376365     -1.97683011      0.34722383
    H      5.07659833      2.23500147     -0.50748576
    C      5.31511568      4.31145127     -1.03249883
    H      1.42830790      4.51558231     -1.00572655
    C      3.27150597      5.62807753     -1.32173168
    H     -3.70462766     -3.63416368      3.27505723
    C     -4.66643529     -2.70991731      1.55545125
    N     -5.66169911     -2.01818618     -0.31618546
    H      6.40659605      4.24866199     -1.04050584
    C      4.67949457      5.52724743     -1.32510863
    C      2.58253965      6.93698898     -1.63456105
    N     -6.01562197     -3.01994137      1.69975083
    H     -5.87032027     -1.59729020     -1.21735236
    C     -6.54437388     -2.74122141      0.47645463
    H      5.28278515      6.41130098     -1.56080925
    H      3.18179906      7.55367098     -2.32384871
    H      2.43058484      7.52775924     -0.71333457
    H      1.59311854      6.77214836     -2.08784953
    C     -7.90027289     -3.13739096     -0.00786403
    H     -8.43210267     -3.63776610      0.81346891
    H     -7.83901588     -3.83462650     -0.86114897
    H     -8.49104250     -2.26146048     -0.32739345
    O      2.08204822     -5.21504762     -0.43168098
    H      2.12459283     -5.45511103      0.49904965
    H      1.65337247     -5.96175528     -0.84309899
