51
Energy:    -57.97394880
    H      4.36086595     -0.58145499     -1.95605822
    O      4.37686134     -0.50094788     -0.97703639
    S      3.51278362     -1.79923214     -0.37293815
    C      1.85572563     -1.16059276     -0.24375789
    O      4.04210736     -1.96095269      0.99625901
    O      3.56375318     -2.87140940     -1.38468616
    C      1.45633874     -0.47202048      0.91117385
    C      0.95979208     -1.26786614     -1.31453168
    N      2.05870117     -0.19785255      2.11449278
    C      0.16202813      0.12492423      0.98907173
    H      1.27958480     -1.78879356     -2.22065432
    C     -0.34571511     -0.71070223     -1.23930307
    H      2.97984273     -0.54765069      2.37396627
    C      1.13663541      0.50382759      2.88496648
    N      0.00095471      0.74100497      2.21835847
    C     -0.72321568      0.02550082     -0.09630027
    C     -1.29540431     -0.91099974     -2.36610222
    C      1.40682236      0.92223098      4.26340132
    H     -1.71351087      0.48356400     -0.02781270
    C     -1.35718821     -2.16544876     -3.03754351
    C     -2.13801960      0.14582302     -2.76802152
    C      2.65760132      0.70524930      4.88164071
    C      0.37933483      1.56430082      4.98880995
    H     -0.69380008     -2.96998312     -2.70586799
    C     -2.27069894     -2.41656535     -4.06523393
    H     -2.07111507      1.12621527     -2.28582258
    C     -3.01076547     -0.09605630     -3.83425931
    H      3.47585954      0.21176646      4.34720065
    C      2.86322880      1.12635630      6.19986953
    H     -0.58097603      1.72229540      4.48756972
    C      0.57540659      1.99063300      6.31120843
    H     -2.30546518     -3.38673414     -4.56861333
    C     -3.15166236     -1.38600647     -4.43674551
    N     -3.88601291      0.71687336     -4.54014621
    H      3.83300728      0.95831228      6.67592301
    C      1.83376380      1.76291427      6.90894694
    C     -0.53742754      2.67452213      7.07257683
    N     -4.20618544     -1.39078675     -5.34515083
    H     -4.04645524      1.70787213     -4.38216618
    C     -4.50285687     -0.07146697     -5.50357553
    H      2.00763978      2.08941679      7.94056133
    H     -0.14043008      3.38253422      7.81798806
    H     -1.15004027      1.93369635      7.61722425
    H     -1.20896662      3.22421739      6.39547463
    C     -5.37788830      0.51334157     -6.56296024
    H     -5.80022731     -0.30737956     -7.15949406
    H     -4.81095091      1.17933700     -7.23602567
    H     -6.20861264      1.09668894     -6.12941101
    O      4.25397892     -1.00604645     -3.55150232
    H      4.18350653     -1.96234122     -3.63045767
    H      4.31746643     -0.70412823     -4.45450549
