54
Energy:    -54.15802419
    H      5.38374773     -3.89726085      2.35773457
    C      4.96135897     -3.50101274      1.43015483
    C      3.82871454     -2.68137815      1.49382369
    C      5.55259907     -3.81828872      0.19906909
    H      3.37865075     -2.44389040      2.46339636
    C      3.28090925     -2.16700072      0.29679978
    H      6.43766050     -4.46203372      0.17328830
    C      5.02268156     -3.31581164     -1.00817289
    C      2.10044910     -1.31226766      0.34432073
    C      3.88782629     -2.49088036     -0.94025466
    C      5.66552666     -3.66004149     -2.33107046
    N      1.56018547     -0.75873838      1.43970173
    N      1.35057993     -0.94050040     -0.74430333
    H      3.48102133     -2.09991834     -1.87902376
    H      6.71587321     -3.32004131     -2.36207065
    H      5.13621379     -3.19168444     -3.17495112
    H      5.67168251     -4.75048602     -2.49853935
    H      1.92192032     -0.85719391      2.50979350
    C      0.41306507     -0.06368137      1.08162555
    H      1.51419156     -1.26780553     -1.69235849
    C      0.28907970     -0.13959610     -0.32728949
    C     -0.53062592      0.62344606      1.86106843
    C     -0.73601139      0.50695499     -1.02407206
    H     -0.45035201      0.64039190      2.95151372
    C     -1.55562389      1.26867959      1.16950652
    H     -0.82312500      0.44481105     -2.11162774
    C     -1.62817799      1.29710173     -0.27069176
    H     -2.36185676      1.73757993      1.74086720
    C     -2.63277847      2.14739637     -0.95779431
    C     -2.90217295      3.46076576     -0.47633668
    C     -3.31895579      1.65485447     -2.08812000
    H     -2.35542579      3.81840717      0.39966228
    C     -3.79854561      4.31889447     -1.11972005
    H     -3.14942712      0.63247696     -2.44110762
    C     -4.25510491      2.50170409     -2.69130865
    H     -3.99460092      5.32534398     -0.74020628
    C     -4.44703681      3.85579146     -2.27795826
    N     -5.15983587      2.32038604     -3.72788988
    N     -5.29950580      4.51963572     -3.15216844
    H     -5.30142136      1.46849513     -4.26368968
    C     -5.84163338      3.51887096     -3.90093916
    C     -7.02035921      3.63621880     -4.81013711
    H     -7.38545049      4.67220566     -4.77777084
    H     -7.84023442      2.96397705     -4.50066878
    H     -6.75477418      3.39063261     -5.85335761
    H     -0.04398982      1.26684332      5.59055302
    O      0.52265023      0.93308233      4.86564223
    S      0.42801131     -0.77090571      4.97419287
    O      0.57589634     -1.09732445      6.40967078
    O      1.66443781     -1.12485135      4.13225344
    O     -0.83474581     -1.15340877      4.28991672
    O      3.53105215     -2.71995892      5.14616188
    H      2.88452254     -2.11795246      4.76499567
    H      3.26126397     -2.80103372      6.05788619
