54
Energy:    -54.15800538
    H      6.60347942     -0.74630224      2.35995447
    C      6.04112904     -0.60926861      1.43215447
    C      4.65185083     -0.45226674      1.49535630
    C      6.71232152     -0.59544001      0.20125625
    H      4.14289696     -0.46628824      2.46478828
    C      3.92229125     -0.27412904      0.29804649
    H      7.79952161     -0.72096324      0.17584206
    C      6.00419212     -0.41887652     -1.00626480
    C      2.47412450     -0.11007455      0.34508045
    C      4.61038366     -0.25834713     -0.93881638
    C      6.73360036     -0.40319093     -2.32895886
    N      1.73122507      0.10683525      1.44015559
    N      1.63867483     -0.15541139     -0.74376546
    H      4.06420592     -0.11826081     -1.87780238
    H      7.48114551      0.40921062     -2.36008730
    H      6.04266553     -0.25588921     -3.17310119
    H      7.27505273     -1.34982848     -2.49587104
    H      2.09432544      0.19937251      2.51031304
    C      0.39070250      0.14805651      1.08167539
    H      1.94232372     -0.36041139     -1.69164643
    C      0.32045679      0.02040235     -0.32720606
    C     -0.76909739      0.28285617      1.86072691
    C     -0.88985655      0.07922729     -1.02436260
    H     -0.70783708      0.33753583      2.95116687
    C     -1.97868345      0.34058172      1.16879171
    H     -0.93485533     -0.01817334     -2.11189018
    C     -2.05542237      0.32905680     -0.27142401
    H     -2.91144395      0.35282644      1.73987832
    C     -3.34805140      0.57538484     -0.95900361
    C     -4.22841660      1.58688162     -0.47822782
    C     -3.70314501     -0.19132697     -2.08910738
    H     -3.92835505      2.16746886      0.39761207
    C     -5.43066119      1.89325322     -1.12208758
    H     -3.05282958     -0.99845694     -2.44156597
    C     -4.93449516      0.08568605     -2.69276839
    H     -6.09625456      2.67348379     -0.74309587
    C     -5.76740016      1.17069172     -2.28011727
    N     -5.63293127     -0.51739991     -3.72929592
    N     -6.83583868      1.32935901     -3.15470278
    H     -5.33729920     -1.32908052     -4.26466706
    C     -6.81576590      0.19104483     -3.90298609
    C     -7.89966087     -0.28659081     -4.81229457
    H     -8.72687595      0.43611977     -4.78047266
    H     -8.28326062     -1.27490506     -4.50251856
    H     -7.54735453     -0.37033938     -5.85537818
    H     -0.66267775      1.08394644      5.58990366
    O     -0.00494996      1.07154063      4.86518768
    S      0.75025482     -0.45882171      4.97460372
    O      1.03908549     -0.66977207      6.41025437
    O      2.00120957     -0.15959915      4.13289826
    O     -0.16116414     -1.41295609      4.29046845
    O      4.41055140     -0.63063140      5.14770492
    H      3.55170628     -0.42438159      4.76619990
    H      4.21520686     -0.83343877      6.05946678
