54
Energy:    -54.11366297
    H      3.25155120      6.05085640     -1.59587493
    C      3.37141853      4.96827986     -1.69328562
    C      2.35505188      4.12644668     -1.22739535
    C      4.53269199      4.44127870     -2.27596455
    H      1.45473944      4.55419860     -0.77408000
    C      2.50661390      2.72684226     -1.35260478
    H      5.31504642      5.11885784     -2.63263534
    C      4.70501464      3.04745958     -2.41125002
    C      1.45816684      1.83476662     -0.87169646
    C      3.68150916      2.20569195     -1.94554110
    C      5.95781492      2.48621253     -3.04156359
    N      0.22174341      2.18887057     -0.49221458
    N      1.58204707      0.47442625     -0.73118037
    H      3.81710479      1.12437580     -2.05507747
    H      6.07893812      2.85157493     -4.07675849
    H      5.93943436      1.38608844     -3.07403119
    H      6.85705036      2.79338245     -2.48105020
    H     -0.22092320      3.23265866     -0.47826094
    C     -0.45778552      1.06448172     -0.04366342
    H      2.43943883     -0.04406227     -0.90075344
    C      0.39327087     -0.05232898     -0.22971145
    C     -1.73922587      0.92084089      0.51086876
    C     -0.00872811     -1.35739832      0.06951561
    H     -2.37257410      1.79398400      0.69057164
    C     -2.14333136     -0.37963801      0.81196410
    H      0.65367852     -2.21377941     -0.07900003
    C     -1.33280731     -1.53630780      0.51971634
    H     -3.09552552     -0.52825285      1.32923763
    C     -1.88274449     -2.90461177      0.69189747
    C     -3.21966308     -3.18989160      0.29117546
    C     -1.08051746     -3.92201455      1.25082176
    H     -3.81876771     -2.38437724     -0.14060488
    C     -3.76509284     -4.47361585      0.38265990
    H     -0.06620073     -3.70320891      1.59993731
    C     -1.65488352     -5.19015735      1.38968667
    H     -4.79239175     -4.67890704      0.06973582
    C     -2.95520981     -5.50539655      0.88866292
    N     -1.20913938     -6.36805512      1.97259661
    N     -3.20669736     -6.86781714      0.99911726
    H     -0.31502545     -6.51304068      2.43344960
    C     -2.21117060     -7.31762264      1.81317591
    C     -2.15125651     -8.65279396      2.47915927
    H     -3.05048592     -9.22154379      2.20435368
    H     -2.11765790     -8.55670638      3.57893803
    H     -1.26299017     -9.22612996      2.16068518
    H     -4.26267383      3.78047174      0.63149968
    O     -3.39827947      3.63756893      0.19518078
    S     -2.24792348      4.35067501      1.24039646
    O     -2.81244744      5.65966026      1.63648521
    O     -1.07514228      4.45997584      0.25270847
    O     -1.98409291      3.34530092      2.30280617
    O      0.11397261      6.80599416     -0.11991163
    H     -0.31632479      5.95067045     -0.02522533
    H     -0.45861799      7.40576614      0.35233150
