54
Energy:    -54.06214668
    H     -2.99280620      3.21896553      5.51617211
    C     -2.31498532      2.39512867      5.27600407
    C     -1.96274992      2.17110720      3.94015879
    C     -1.81366763      1.57877368      6.29974530
    H     -2.36377895      2.81746919      3.15249078
    C     -1.08623657      1.10765093      3.62658885
    H     -2.10349853      1.77215109      7.33753585
    C     -0.93728695      0.51174181      6.00969550
    C     -0.70938593      0.85908397      2.24004239
    C     -0.58334517      0.29185138      4.66828042
    C     -0.39935117     -0.36295569      7.11754539
    N     -0.93442261      1.66866621      1.19501890
    N     -0.05742913     -0.26168299      1.78788010
    H      0.09970378     -0.53526517      4.44703091
    H      0.17156667      0.23286337      7.85160361
    H      0.26886111     -1.14677760      6.72924066
    H     -1.21823259     -0.85776052      7.66686716
    H     -1.45194480      2.67747887      1.20549741
    C     -0.48019122      1.05473909      0.03571940
    H      0.18383453     -1.05899339      2.36994021
    C      0.12274380     -0.17137795      0.40892625
    C     -0.54316481      1.45772891     -1.30735972
    C      0.73644181     -1.01667991     -0.52015144
    H     -1.04854318      2.38522323     -1.59046571
    C      0.06687883      0.61626209     -2.23740560
    H      1.20115674     -1.96015375     -0.22329262
    C      0.78517199     -0.57566030     -1.85843470
    H     -0.03795368      0.84474961     -3.30189402
    C      1.56822452     -1.33554441     -2.86528021
    C      2.34758286     -0.63974770     -3.83367142
    C      1.54134092     -2.74633708     -2.86149646
    H      2.35236982      0.45285196     -3.81324888
    C      3.14367999     -1.30928178     -4.76735470
    H      0.91338129     -3.28975271     -2.14808063
    C      2.29780443     -3.40630547     -3.83595563
    H      3.73838199     -0.76250501     -5.50408646
    C      3.16484484     -2.71467367     -4.73658618
    N      2.42534482     -4.74352155     -4.18452642
    N      3.92579882     -3.61442420     -5.47349460
    H      1.94811237     -5.52882544     -3.75048380
    C      3.32632025     -4.81535883     -5.24010336
    C      3.56675585     -6.08274260     -5.99225700
    H      4.31388026     -5.88902963     -6.77448996
    H      2.64266489     -6.45193736     -6.47145021
    H      3.94947108     -6.88065736     -5.33194034
    H     -1.73127882      4.92691338     -2.36233567
    O     -1.50085826      4.50308552     -1.51071996
    S     -2.99113825      3.97927743     -0.85573475
    O     -3.93435233      5.10483837     -1.03594515
    O     -2.54481859      3.77791803      0.60136619
    O     -3.29821170      2.68737951     -1.52342005
    O     -3.90601556      4.96348406      2.53155481
    H     -3.36638229      4.55638861      1.84688757
    H     -4.49028814      5.54418036      2.04987302
