54
Energy:    -53.94686562
    H      1.95808415     -0.08422434      6.77651689
    C      2.38085541     -0.09602922      5.76807546
    C      1.52019689     -0.00412934      4.66827578
    C      3.76737214     -0.20493897      5.59056202
    H      0.43960025      0.07955995      4.82427578
    C      2.06359066     -0.01827649      3.36364401
    H      4.42138529     -0.27641875      6.46552684
    C      4.33152264     -0.22084404      4.29742233
    C      1.18161823      0.07550516      2.20621469
    C      3.46503166     -0.12514156      3.19603438
    C      5.82632527     -0.33663700      4.11314243
    N     -0.12139406      0.39190335      2.22000410
    N      1.55901956     -0.15159365      0.90559508
    H      3.90657127     -0.13451735      2.19374507
    H      6.35240956      0.50261051      4.60169941
    H      6.10662928     -0.33421938      3.04867598
    H      6.21158063     -1.26763391      4.56255990
    H     -0.75959412      0.63899485      3.12404418
    C     -0.62294453      0.31777609      0.92765729
    H      2.48498745     -0.46005558      0.62250374
    C      0.45790830      0.00774318      0.06637118
    C     -1.92455630      0.49096840      0.43163387
    C      0.30665666     -0.08549304     -1.32027079
    H     -2.76024775      0.68758107      1.10895599
    C     -2.07965202      0.39734778     -0.95125640
    H      1.14651229     -0.32320829     -1.97781317
    C     -0.96901471      0.19799911     -1.84958143
    H     -3.08891686      0.43430199     -1.37119790
    C     -1.16297270      0.28745446     -3.31883670
    C     -1.99597562      1.30529948     -3.86602190
    C     -0.52096726     -0.63462764     -4.17245642
    H     -2.47982932      2.00771256     -3.18285614
    C     -2.16724612      1.46447396     -5.24411512
    H      0.08784135     -1.44553238     -3.75968339
    C     -0.74387122     -0.50089844     -5.54715505
    H     -2.80835765      2.25133692     -5.65060214
    C     -1.48874425      0.58350090     -6.10437245
    N     -0.36809761     -1.26667580     -6.64182131
    N     -1.40633442      0.57380996     -7.49172630
    H      0.17761914     -2.12375273     -6.62041199
    C     -0.87628298     -0.64820077     -7.77777741
    C     -0.82144234     -1.29336030     -9.12335078
    H     -1.28342803     -0.61615534     -9.85517771
    H     -1.36899531     -2.25247108     -9.13628407
    H      0.21858904     -1.49137780     -9.43684846
    H     -4.79875892      1.76627885      2.59320102
    O     -3.82869955      1.69535029      2.70241165
    S     -3.58153037      0.23252133      3.55291375
    O     -4.57931125      0.22187560      4.64531293
    O     -2.14410619      0.48591228      4.03509086
    O     -3.64028200     -0.84693085      2.53289942
    O     -1.64781211      0.01634961      6.60320791
    H     -1.81180438      0.20897034      5.67492789
    H     -2.52073712     -0.07979391      6.97651522
