54
Energy:    -53.90771548
    H     -2.07491842     -5.54071755     -3.83830403
    C     -1.82505401     -4.48090484     -3.93926838
    C     -1.38901429     -3.77423959     -2.81266659
    C     -1.94612414     -3.84775742     -5.18436571
    H     -1.30072415     -4.28352450     -1.84733621
    C     -1.06451366     -2.40456545     -2.94007565
    H     -2.28999274     -4.42018944     -6.05182290
    C     -1.62750595     -2.48150356     -5.33457167
    C     -0.60957380     -1.65252616     -1.77655529
    C     -1.18709778     -1.77620368     -4.20248788
    C     -1.75845546     -1.80579914     -6.67921949
    N     -0.24780486     -2.16118612     -0.58974137
    N     -0.48251754     -0.28641813     -1.71978780
    H     -0.93751534     -0.71661401     -4.32334872
    H     -1.11493033     -2.29365770     -7.43265060
    H     -1.47252324     -0.74393395     -6.63074188
    H     -2.79514459     -1.86053992     -7.05262557
    H     -0.23260018     -3.25333436     -0.28540104
    C      0.06558732     -1.12214719      0.27593262
    H     -0.74355399      0.34570107     -2.47144682
    C     -0.04302873      0.08831627     -0.45149969
    C      0.43217688     -1.12867426      1.63084867
    C      0.26163405      1.33040413      0.11307477
    H      0.47164182     -2.06421999      2.19564838
    C      0.73560764      0.10885099      2.19800474
    H      0.17703024      2.25947896     -0.45603871
    C      0.74206253      1.33503208      1.43860940
    H      0.93635806      0.16040022      3.27195723
    C      1.24703209      2.59329172      2.04368909
    C      2.41565344      2.57238672      2.85806070
    C      0.57019115      3.80927372      1.81056441
    H      2.92182070      1.61768535      3.02101468
    C      2.96097470      3.73717371      3.40551570
    H     -0.35175714      3.82954793      1.22048279
    C      1.09262364      4.96079430      2.40925520
    H      3.85965150      3.70682606      4.02750286
    C      2.32367261      4.96062704      3.13435341
    N      0.64564705      6.27279592      2.47838308
    N      2.69751658      6.25726129      3.46694370
    H     -0.20838571      6.64206859      2.06959006
    C      1.58000194      6.99369882      3.21216776
    C      1.33402261      8.40214478      3.64295791
    H      2.20975042      8.75383925      4.20600302
    H      0.44386167      8.47843817      4.29231746
    H      1.18195630      9.07095094      2.77766538
    H      1.18936685     -4.34254707      3.54331173
    O      1.04459511     -4.11418897      2.60263818
    S     -0.60749233     -4.44673774      2.31223601
    O     -0.87488403     -5.76167700      2.93549552
    O     -0.56755882     -4.49070623      0.77621450
    O     -1.35541622     -3.26361885      2.81217356
    O     -1.54999947     -6.64161226     -0.43730554
    H     -1.20511445     -5.85905907      0.00356272
    H     -1.67723552     -7.26818392      0.27108626
