54
Energy:    -53.90476222
    H     -2.39015089      2.99034227      5.92353037
    C     -1.93084275      2.06612248      5.56202959
    C     -1.56838145      1.96846591      4.21376293
    C     -1.71509089      0.99863543      6.44504914
    H     -1.74452694      2.81117704      3.53712438
    C     -0.97377975      0.77557890      3.74364551
    H     -2.00739207      1.09714640      7.49541175
    C     -1.12292259     -0.20127823      5.99753050
    C     -0.59078040      0.65600007      2.34174487
    C     -0.75743369     -0.29457715      4.64448424
    C     -0.89163861     -1.34696152      6.95446285
    N     -0.54027707      1.64841162      1.44135177
    N     -0.21928628     -0.51150846      1.72163766
    H     -0.29503541     -1.22622236      4.30118551
    H     -0.23272163     -1.04185387      7.78664477
    H     -0.42264199     -2.20753504      6.45334372
    H     -1.84049119     -1.69062660      7.40024990
    H     -0.78420254      2.74285132      1.60970884
    C     -0.18889569      1.12521942      0.20441642
    H     -0.22351022     -1.42452894      2.16782345
    C      0.05948875     -0.25813969      0.37991498
    C     -0.06753708      1.73428520     -1.05436829
    C      0.49235794     -1.07909835     -0.66555007
    H     -0.30296187      2.79368047     -1.18875142
    C      0.36283617      0.91808298     -2.10021618
    H      0.68365120     -2.14527116     -0.52094575
    C      0.73092823     -0.46361888     -1.91140087
    H      0.38290612      1.32847772     -3.11387557
    C      1.35360597     -1.23518869     -3.01651872
    C      2.34025719     -0.62459911     -3.84296518
    C      0.96900922     -2.57317350     -3.24663821
    H      2.62124630      0.41216018     -3.64199431
    C      2.99413633     -1.32483290     -4.86076954
    H      0.18236987     -3.03835868     -2.64381379
    C      1.58947948     -3.24763894     -4.30374701
    H      3.75090866     -0.84416427     -5.48659883
    C      2.65569323     -2.67437225     -5.06256355
    N      1.39357802     -4.50097479     -4.86649638
    N      3.20547165     -3.61540743     -5.92502078
    H      0.70758506     -5.19250420     -4.57658823
    C      2.30779066     -4.64000953     -5.90382207
    C      2.26258543     -5.79349445     -6.85104697
    H      3.07950559     -5.68188666     -7.57754072
    H      1.30516569     -5.83029079     -7.40047255
    H      2.39011238     -6.75607386     -6.32537145
    H     -0.27047673      5.51340513     -1.54109001
    O     -0.20629260      4.91723729     -0.76750271
    S     -1.81693352      4.70431274     -0.23382305
    O     -2.43082066      6.05045537     -0.24147732
    O     -1.52377029      4.16987338      1.17731829
    O     -2.40192924      3.65688513     -1.11119037
    O     -2.81958768      5.34563228      3.20095365
    H     -2.34671526      4.91489938      2.48223198
    H     -3.19364213      6.12485220      2.79660283
