54
Energy:    -53.86176582
    H     -0.99950576      6.94051598      0.76768441
    C     -0.20404735      6.20809445      0.60448629
    C     -0.54167156      4.85756393      0.46021146
    C      1.13275734      6.62669323      0.54507853
    H     -1.59058087      4.54717477      0.50997901
    C      0.48405947      3.90860296      0.24833898
    H      1.37348820      7.68825654      0.66143139
    C      2.17272211      5.69676500      0.33428062
    C      0.15058626      2.49715535      0.09693133
    C      1.82993432      4.34261434      0.18665439
    C      3.61078107      6.15458491      0.26955519
    N     -1.07481161      1.98152806     -0.07819021
    N      1.05692308      1.46569064      0.11277832
    H      2.63940275      3.62387400      0.01991448
    H      3.75936560      6.88090020     -0.54908865
    H      4.29885936      5.31232337      0.09982370
    H      3.91171921      6.65415499      1.20604809
    H     -2.05634551      2.54599929     -0.13823546
    C     -0.98566593      0.59681539     -0.12099065
    H      2.05214134      1.57913330      0.28417664
    C      0.38609693      0.25365879     -0.03921532
    C     -1.97962912     -0.38919084     -0.22127475
    C      0.83199324     -1.06931621     -0.11173853
    H     -3.03851022     -0.11678981     -0.24052283
    C     -1.53867265     -1.71043444     -0.29253299
    H      1.89262550     -1.32515506     -0.04982164
    C     -0.14137487     -2.06618435     -0.32780200
    H     -2.28044812     -2.51412296     -0.27889779
    C      0.27278690     -3.46823036     -0.58678083
    C     -0.40397658     -4.23916423     -1.57519681
    C      1.33739215     -4.03581564      0.14502216
    H     -1.22375673     -3.77488163     -2.12892613
    C     -0.01710945     -5.54410483     -1.89343391
    H      1.83670022     -3.46575005      0.93515675
    C      1.68017877     -5.36144464     -0.14232969
    H     -0.54449357     -6.12396006     -2.65569561
    C      1.07695389     -6.09917205     -1.20681409
    N      2.58071174     -6.24774478      0.43162801
    N      1.72102547     -7.31764938     -1.38603688
    H      3.19045692     -6.06118947      1.22299008
    C      2.49688248     -7.44250008     -0.27313608
    C      3.19345488     -8.68223268      0.18255676
    H      2.97688859     -9.48816821     -0.53240825
    H      2.84847585     -8.99711854      1.18341208
    H      4.28737835     -8.53973299      0.22927161
    H     -5.64166003      0.44063480     -0.90005970
    O     -4.80280089      0.94463696     -0.91649668
    S     -4.71145267      1.70829581      0.61085255
    O     -6.05549307      2.27142049      0.86670796
    O     -3.65297466      2.77105358      0.27460826
    O     -4.18597379      0.68209064      1.54886795
    O     -4.22649135      5.27392458      0.89535239
    H     -4.02519282      4.37418240      0.62031982
    H     -5.16010282      5.25171454      1.09150625
