54
Energy:    -53.85248533
    H      0.58698997     -1.56923571      6.85220855
    C      1.01238599     -0.90960575      6.09079176
    C      0.48583307     -0.93836461      4.79439176
    C      2.07253968     -0.05269995      6.41879727
    H     -0.34173388     -1.61410770      4.55453092
    C      1.03291307     -0.08643491      3.80825777
    H      2.46901156     -0.04773671      7.43918514
    C      2.63384137      0.80627973      5.45038449
    C      0.49733729     -0.10394443      2.45209959
    C      2.10074039      0.77711012      4.15116415
    C      3.77476708      1.72834782      5.81077449
    N     -0.63218788     -0.70338788      2.04839247
    N      1.08013629      0.49999264      1.36525906
    H      2.53666259      1.44752904      3.40273959
    H      3.48320050      2.42343487      6.61801171
    H      4.09820828      2.33184931      4.94889472
    H      4.64780359      1.15861836      6.17184040
    H     -1.36117958     -1.29586293      2.68336210
    C     -0.76824616     -0.54414713      0.67604466
    H      1.97581484      0.97955655      1.38726780
    C      0.30698995      0.26291049      0.23028426
    C     -1.73239646     -1.03416220     -0.21867731
    C      0.43888463      0.66420496     -1.10234942
    H     -2.53453403     -1.69179767      0.12757826
    C     -1.60335431     -0.63701746     -1.54940237
    H      1.27067119      1.28875543     -1.43745511
    C     -0.58153941      0.27800376     -1.99535470
    H     -2.27747004     -1.06837732     -2.29494154
    C     -0.59885070      0.80923033     -3.38165612
    C     -1.83187914      1.19946850     -3.97887386
    C      0.60602156      0.92876731     -4.10627103
    H     -2.75015076      1.09839622     -3.39511396
    C     -1.89419647      1.75507287     -5.25997937
    H      1.55320348      0.59321904     -3.67170255
    C      0.52557433      1.43386786     -5.40848747
    H     -2.84746308      2.05187496     -5.70562529
    C     -0.69241263      1.92760028     -5.96883119
    N      1.46454240      1.59081885     -6.41824999
    N     -0.45782585      2.53024589     -7.19904390
    H      2.44891383      1.34250648     -6.37134740
    C      0.81270385      2.14991753     -7.51080441
    C      1.47441611      2.29030698     -8.84205709
    H      0.76319106      2.75503520     -9.53904678
    H      1.77775960      1.30977904     -9.25000644
    H      2.37444047      2.92721309     -8.78320346
    H     -4.89608231     -2.82455510      0.94124301
    O     -4.18680041     -2.31537811      1.38354492
    S     -3.08102765     -3.49051132      1.94979886
    O     -3.89932884     -4.55525377      2.57086463
    O     -2.32404591     -2.62323393      2.96847376
    O     -2.22959819     -3.84421731      0.78401245
    O     -2.01462064     -3.69843842      5.39318539
    H     -2.12332871     -3.27694767      4.53514803
    H     -2.64524497     -4.41449550      5.37994879
