54
Energy:    -53.85169311
    H      0.68770224      0.93824913      6.95800058
    C     -0.07252388      0.74293637      6.19659518
    C      0.32521456      0.57444703      4.86537263
    C     -1.42470064      0.66713065      6.55946221
    H      1.38535405      0.63749208      4.59861694
    C     -0.65486528      0.32106078      3.87907658
    H     -1.71276455      0.80299482      7.60682372
    C     -2.41983344      0.41497647      5.59154797
    C     -0.25853372      0.14396998      2.48700146
    C     -2.01672021      0.24315493      4.25700756
    C     -3.87473545      0.33278301      5.98942529
    N      0.99083776     -0.01902941      2.02804493
    N     -1.12001770      0.11863738      1.41797357
    H     -2.79146151      0.04434209      3.50875735
    H     -4.03915245     -0.47179392      6.72794544
    H     -4.52287513      0.13051863      5.12301368
    H     -4.21400984      1.27441387      6.45351280
    H      1.94824566     -0.04707825      2.63486072
    C      0.96186184     -0.09516598      0.64219804
    H     -2.12217253      0.27320469      1.48506045
    C     -0.39522668     -0.04792779      0.23938755
    C      1.99880793     -0.19860214     -0.29815922
    C     -0.78266024     -0.15929822     -1.09920793
    H      3.04523066     -0.19103871      0.01924314
    C      1.61621139     -0.30857262     -1.63484594
    H     -1.83232840     -0.12386784     -1.40115070
    C      0.23631397     -0.37911005     -2.04854945
    H      2.39133695     -0.29887904     -2.40647953
    C     -0.11259475     -0.67804113     -3.46036952
    C      0.61467203     -1.67046369     -4.17834896
    C     -1.16524227      0.01977749     -4.08969884
    H      1.42389836     -2.19740666     -3.66678484
    C      0.28996406     -2.02587826     -5.49062036
    H     -1.70298915      0.81286993     -3.56014368
    C     -1.44560166     -0.30438137     -5.42149674
    H      0.85566142     -2.79078819     -6.02942301
    C     -0.79181196     -1.37350922     -6.10762624
    N     -2.31779846      0.23157364     -6.35848125
    N     -1.37971087     -1.59299687     -7.34772141
    H     -2.94946592      1.01498818     -6.21669311
    C     -2.16990885     -0.49852859     -7.53161355
    C     -2.82105380     -0.08489207     -8.81017567
    H     -2.55702971     -0.81373109     -9.58908064
    H     -2.48143149      0.91502761     -9.13373762
    H     -3.92075050     -0.05620716     -8.71530029
    H      5.63385194     -0.78695022      0.70190656
    O      4.77463033     -0.80817529      1.17015940
    S      4.62251211      0.73415103      1.89293500
    O      5.93626261      1.02887625      2.50629677
    O      3.52588803      0.40175389      2.91754116
    O      4.12423558      1.63809512      0.82349422
    O      3.97549068      1.20659315      5.40661708
    H      3.80811782      0.90646428      4.50794640
    H      4.89766903      1.45183132      5.39988415
