54
Energy:    -54.15799525
    H     -3.35200582     -5.65477932      2.55339375
    C     -3.02833635     -5.21179819      1.60743667
    C     -2.30123070     -4.01615217      1.62948157
    C     -3.34523670     -5.83986088      0.39462489
    H     -2.06272657     -3.53803504      2.58527903
    C     -1.88074725     -3.44153785      0.40859949
    H     -3.91571516     -6.77415918      0.40148146
    C     -2.93556167     -5.28414397     -0.83585229
    C     -1.12319788     -2.19557845      0.41273510
    C     -2.20319150     -4.08582190     -0.80979198
    C     -3.27876623     -5.96679832     -2.13892392
    N     -0.57225685     -1.60073493      1.48080073
    N     -0.85680960     -1.42990234     -0.69559445
    H     -1.88396819     -3.65891910     -1.76659890
    H     -2.85632845     -6.98659169     -2.17575858
    H     -2.88862230     -5.41053677     -3.00496422
    H     -4.37090921     -6.06262970     -2.26218409
    H     -0.59860961     -1.95772961      2.55667355
    C      0.01289138     -0.40522688      1.08637705
    H     -1.20710773     -1.62952530     -1.62841163
    C     -0.12859308     -0.30288451     -0.31921364
    C      0.65169790      0.59908811      1.83035664
    C      0.40470406      0.76345518     -1.04918613
    H      0.71829225      0.53214290      2.91979940
    C      1.18389729      1.66528478      1.10565430
    H      0.29265634      0.83360507     -2.13396827
    C      1.14924959      1.72444113     -0.33502021
    H      1.60824900      2.51277383      1.65156633
    C      1.88750347      2.78688546     -1.06339255
    C      3.19279232      3.16642144     -0.63737912
    C      1.29660674      3.41896232     -2.17801935
    H      3.62796799      2.65971070      0.22753728
    C      3.94934473      4.12209684     -1.32157497
    H      0.27812993      3.16379599     -2.48816631
    C      2.04029816      4.41380441     -2.82189690
    H      4.95086174      4.40270256     -0.98447985
    C      3.38971235      4.71868603     -2.46499700
    N      1.74537615      5.28980406     -3.85705901
    N      3.94717818      5.61246610     -3.37165296
    H      0.86425420      5.35650329     -4.35907627
    C      2.87691448      6.06409583     -4.08345083
    C      2.86230429      7.23862443     -5.00544602
    H      3.86579242      7.68636351     -5.01766387
    H      2.13867649      8.00491519     -4.67523957
    H      2.59787784      6.94293227     -6.03588369
    H      1.47969005      0.20593223      5.53436628
    O      1.16444099     -0.39351116      4.82778390
    S     -0.53596942     -0.43537790      5.00432456
    O     -0.79219209     -0.59368749      6.45287695
    O     -0.82172384     -1.70527184      4.18664260
    O     -1.04628516      0.78502392      4.32661131
    O     -2.21897943     -3.68342339      5.27807200
    H     -1.68690241     -2.99458415      4.86807865
    H     -2.28538711     -3.41131552      6.19029309
