54
Energy:    -53.82761195
    H     -3.48162450      3.86780149      4.76076994
    C     -2.87509695      2.96145836      4.68017560
    C     -2.32869252      2.61647326      3.43873873
    C     -2.65642129      2.16158307      5.81074248
    H     -2.50976002      3.25168010      2.56537980
    C     -1.54363598      1.44612092      3.33148840
    H     -3.09445452      2.45054543      6.77148888
    C     -1.87593914      0.98918308      5.72674902
    C     -0.96739199      1.07090081      2.04561682
    C     -1.32642427      0.64775839      4.47995971
    C     -1.64273354      0.13274790      6.94901573
    N     -0.91299018      1.83258846      0.94334127
    N     -0.38507220     -0.14057063      1.76480085
    H     -0.71840578     -0.26121389      4.41903424
    H     -1.13926084      0.70791330      7.74619136
    H     -1.01553977     -0.74220446      6.71933911
    H     -2.59621159     -0.23414147      7.36545876
    H     -1.30155339      2.89045253      0.81850447
    C     -0.34316603      1.10083031     -0.08963426
    H     -0.34299501     -0.92108393      2.41421174
    C      0.03761586     -0.15769466      0.43695576
    C     -0.12742260      1.42267637     -1.43874430
    C      0.69666559     -1.12183600     -0.33143927
    H     -0.46354017      2.38000986     -1.84659179
    C      0.52867225      0.46267693     -2.20890378
    H      0.98876555     -2.08971947      0.08341879
    C      1.02535309     -0.77414040     -1.65769237
    H      0.63518090      0.63356513     -3.28397826
    C      1.87346370     -1.67692080     -2.47624534
    C      2.88372794     -1.13279084     -3.32040335
    C      1.67949368     -3.07329981     -2.41645988
    H      3.01427416     -0.04813128     -3.34658217
    C      3.74278600     -1.94274434     -4.06860490
    H      0.87895258     -3.49886984     -1.80276607
    C      2.50788869     -3.87201677     -3.21218529
    H      4.51518090     -1.51168572     -4.71125845
    C      3.59183972     -3.33730097     -3.97401085
    N      2.53392024     -5.23449044     -3.47467881
    N      4.35562403     -4.35938039     -4.52503098
    H      1.89993826     -5.93409490     -3.09855856
    C      3.58716688     -5.47064232     -4.34992952
    C      3.80089447     -6.80163130     -4.99226499
    H      4.68835868     -6.74031539     -5.63744376
    H      2.93522590     -7.09737764     -5.61115677
    H      3.96787940     -7.59322683     -4.24083333
    H     -0.69846369      4.92715409     -2.83601952
    O     -0.66886153      4.53534820     -1.93959057
    S     -2.30055856      4.21956607     -1.53689780
    O     -3.05908207      5.42762501     -1.92964668
    O     -2.13696012      4.06314323     -0.01648422
    O     -2.63971378      2.92929079     -2.19207826
    O     -3.80879763      5.53725856      1.48524130
    H     -3.18884623      5.00365997      0.97865192
    H     -4.21925260      6.09751287      0.83083941
