54
Energy:    -53.82701218
    H     -1.16693286     -6.23496586      3.08461151
    C     -0.68428745     -5.79715220      2.20643066
    C     -0.68005076     -4.40582161      2.05503971
    C     -0.08336119     -6.62762171      1.24986962
    H     -1.15459265     -3.77146582      2.81097075
    C     -0.05634367     -3.83686014      0.92154365
    H     -0.09952893     -7.71339107      1.38861218
    C      0.54506150     -6.08131557      0.11085095
    C     -0.04336632     -2.38919604      0.74714970
    C      0.55025758     -4.68440042     -0.03619347
    C      1.19218377     -6.98156667     -0.91510359
    N     -0.38385794     -1.47231719      1.66450330
    N      0.32438956     -1.73585581     -0.40329332
    H      1.04177983     -4.26352512     -0.91987830
    H      1.99301537     -7.59062128     -0.45957069
    H      1.63752637     -6.40447796     -1.73990877
    H      0.45835924     -7.68163780     -1.34933277
    H     -0.73822570     -1.65933301      2.72520617
    C     -0.29606420     -0.20710221      1.09994038
    H      0.57700501     -2.20044071     -1.27107918
    C      0.19725164     -0.36036896     -0.21889463
    C     -0.60535036      1.05918240      1.62060666
    C      0.45848751      0.73172357     -1.05162251
    H     -1.02619406      1.16422399      2.62442877
    C     -0.34731635      2.15114252      0.79220666
    H      0.84102577      0.60457593     -2.06736163
    C      0.26328034      2.01774858     -0.50764746
    H     -0.65816155      3.14666279      1.12182255
    C      0.68204693      3.22076900     -1.27034623
    C      1.31080441      4.30718970     -0.59679734
    C      0.45850818      3.28673785     -2.66201844
    H      1.47378457      4.22965004      0.48099627
    C      1.77148373      5.43745693     -1.27803265
    H     -0.06088155      2.47529365     -3.18200749
    C      0.87307324      4.44666411     -3.32539833
    H      2.25399910      6.26346604     -0.74860196
    C      1.60113860      5.48833091     -2.67263488
    N      0.72859402      4.88703707     -4.63349328
    N      2.04029334      6.43179332     -3.59386113
    H      0.25690656      4.39531870     -5.38752908
    C      1.34671992      6.12817796     -4.72649683
    C      1.22911108      6.98302224     -5.94519097
    H      1.79848318      7.90827198     -5.77985395
    H      0.17778088      7.24902711     -6.15452614
    H      1.63573373      6.47603758     -6.83781720
    H     -1.50193207      1.61446489      5.28770805
    O     -1.14594294      0.86570092      4.76751841
    S     -2.50679113     -0.09423799      4.37902838
    O     -3.29827771     -0.20332498      5.62428539
    O     -1.77382361     -1.39125344      4.00034707
    O     -3.13622962      0.55038379      3.19692520
    O     -2.67772345     -3.61783454      5.16491548
    H     -2.34166308     -2.81648359      4.75187785
    H     -3.25118579     -3.29748185      5.85709689
