54
Energy:    -53.79979503
    H     -3.43681289     -5.59868428      2.57334184
    C     -3.07621722     -5.18136461      1.62907278
    C     -2.35607300     -3.98143445      1.64633306
    C     -3.33972112     -5.84600242      0.42299514
    H     -2.15956367     -3.47455014      2.59684943
    C     -1.88794690     -3.43992515      0.42765893
    H     -3.90575613     -6.78296601      0.43346450
    C     -2.88191069     -5.32372141     -0.80515841
    C     -1.13687089     -2.19004630      0.42682631
    C     -2.15668510     -4.12097021     -0.78374826
    C     -3.16770701     -6.04568505     -2.10087866
    N     -0.63337910     -1.56145331      1.49897643
    N     -0.82823702     -1.45518989     -0.69136338
    H     -1.80000913     -3.72006077     -1.73856912
    H     -2.73949108     -7.06367981     -2.09054413
    H     -2.74452064     -5.51244485     -2.96588339
    H     -4.25335628     -6.15129258     -2.26630453
    H     -0.70269168     -1.88736777      2.58277416
    C     -0.03780375     -0.37450401      1.09444043
    H     -1.13865705     -1.68367753     -1.63164994
    C     -0.12136084     -0.31361687     -0.31817698
    C      0.56505737      0.65452515      1.83463329
    C      0.43690347      0.73423075     -1.05621651
    H      0.58673486      0.61945886      2.92738324
    C      1.12200706      1.70237574      1.10181601
    H      0.36960442      0.77237452     -2.14628251
    C      1.14684376      1.71969432     -0.34017089
    H      1.51952094      2.56769711      1.63989931
    C      1.90983783      2.76486876     -1.06803313
    C      3.19461224      3.16402401     -0.59969158
    C      1.36279853      3.36109022     -2.22403528
    H      3.59584973      2.68500927      0.29683915
    C      3.97454117      4.10385671     -1.27957125
    H      0.35922024      3.09124073     -2.56843022
    C      2.12802890      4.34116351     -2.86531900
    H      4.95994208      4.39981578     -0.90970332
    C      3.46009343      4.66395327     -2.46200788
    N      1.87230798      5.18519307     -3.93683004
    N      4.05061122      5.53435110     -3.37048592
    H      1.01246119      5.23231437     -4.47654208
    C      3.00874017      5.95909283     -4.13872364
    C      3.02704393      7.10639670     -5.09432021
    H      4.02813784      7.55933811     -5.07810080
    H      2.28688658      7.87774711     -4.81672225
    H      2.80690280      6.77955377     -6.12576026
    H      1.24056265      0.37327331      5.57955252
    O      0.95759360     -0.24812581      4.87829319
    S     -0.74846645     -0.29461743      4.98559022
    O     -1.06379802     -0.41248521      6.42631545
    O     -0.99432449     -1.58921645      4.19409973
    O     -1.23577134      0.90275570      4.25215342
    O     -2.28936517     -3.53626260      5.35370242
    H     -1.78145675     -2.85708979      4.89933107
    H     -2.36489056     -3.20896007      6.24688155
