54
Energy:    -53.78689471
    H     -7.05044137      0.11856161     -0.21777500
    C     -6.19084649     -0.32874540     -0.72457089
    C     -4.90383668     -0.06687400     -0.24107620
    C     -6.38646908     -1.14958998     -1.84427933
    H     -4.76836379      0.57710493      0.63411934
    C     -3.79084807     -0.64418369     -0.89338814
    H     -7.40223699     -1.33990866     -2.20538922
    C     -5.29004252     -1.73641033     -2.51077740
    C     -2.44266696     -0.38128911     -0.40389132
    C     -4.00002925     -1.47405535     -2.02082163
    C     -5.50781661     -2.62124319     -3.71553764
    N     -2.11580757      0.19939884      0.75976819
    N     -1.28493330     -0.69285217     -1.07336740
    H     -3.15140836     -1.93380147     -2.53861027
    H     -6.13613948     -3.49264715     -3.45930632
    H     -4.55661400     -3.00057104     -4.11925658
    H     -6.02403968     -2.07427331     -4.52268738
    H     -2.82236639      0.58425088      1.55870846
    C     -0.73533779      0.32502249      0.83546418
    H     -1.25209197     -1.09412431     -2.00643123
    C     -0.18646386     -0.28176237     -0.32070473
    C      0.08544973      0.91641679      1.80849481
    C      1.19206017     -0.37924437     -0.53168990
    H     -0.34901032      1.42029063      2.67634135
    C      1.46138915      0.82234683      1.60077733
    H      1.60720689     -0.85092690     -1.42577983
    C      2.03572475      0.10623944      0.48831527
    H      2.13389899      1.34775946      2.28488558
    C      3.50142064     -0.11814622      0.41268712
    C      4.22920369     -0.46847597      1.58610730
    C      4.17244740      0.01414739     -0.82153104
    H      3.68494005     -0.56628197      2.52867034
    C      5.59955433     -0.74248844      1.55665777
    H      3.62954592      0.32324841     -1.72059197
    C      5.55379727     -0.20761752     -0.82920421
    H      6.14549521     -1.01197660      2.46480626
    C      6.26640881     -0.66539893      0.32139127
    N      6.52471317     -0.07214170     -1.81148911
    N      7.58169760     -0.97266694     -0.00608051
    H      6.37672756      0.23724370     -2.76816405
    C      7.74179341     -0.43600380     -1.24803542
    C      9.03740171     -0.23794850     -1.96356265
    H      9.85149717     -0.59857048     -1.31950647
    H      9.21556966      0.82761212     -2.19315307
    H      9.06689029     -0.79995675     -2.91352799
    H     -1.25942256      2.16492927      5.15399404
    O     -1.62133446      1.63088622      4.41792964
    S     -2.47625647      2.74227417      3.43903220
    O     -3.26327911      3.58304440      4.36785768
    O     -3.32873411      1.74079009      2.64329261
    O     -1.45511326      3.40138071      2.58349546
    O     -5.92009428      2.30243252      2.50831680
    H     -4.99704630      2.04614454      2.59775346
    H     -6.02574251      3.00865117      3.14132049
