54
Energy:    -53.78603700
    H     -0.12762770      1.29728383      6.92988526
    C     -0.15957208      1.81404221      5.96667743
    C     -0.15465610      1.05849296      4.78860308
    C     -0.20185535      3.21481983      5.92383858
    H     -0.12055973     -0.03479026      4.83957603
    C     -0.19671464      1.72339469      3.54213696
    H     -0.20404703      3.78535863      6.85812263
    C     -0.24445313      3.89934218      4.69081645
    C     -0.19121433      0.95210573      2.30464107
    C     -0.24267843      3.13776378      3.51055537
    C     -0.29166815      5.40866014      4.65167532
    N     -0.36389547     -0.37271160      2.18984003
    N     -0.00352439      1.47540898      1.04903636
    H     -0.27909522      3.67223710      2.55523287
    H     -1.18434140      5.79135935      5.17747452
    H     -0.32210850      5.78831388      3.61891135
    H      0.59079879      5.84723332      5.14771833
    H     -0.54213985     -1.11801282      3.02554155
    C     -0.23258938     -0.73643153      0.85654541
    H      0.20294676      2.45224853      0.85966854
    C     -0.04007208      0.44954172      0.10649107
    C     -0.26188039     -1.99525256      0.23627156
    C      0.07230983      0.44357891     -1.28695099
    H     -0.36791548     -2.90865785      0.82809024
    C     -0.14870658     -2.00533884     -1.15379856
    H      0.21870355      1.36364369     -1.85815821
    C     -0.06937173     -0.79829646     -1.93929055
    H     -0.07457684     -2.96749312     -1.66867323
    C     -0.13375254     -0.85831254     -3.42137900
    C     -1.05357397     -1.73988338     -4.05861946
    C      0.71493611     -0.04110619     -4.19789324
    H     -1.70072173     -2.36042510     -3.43384610
    C     -1.18994191     -1.79377510     -5.44869516
    H      1.45377085      0.60920602     -3.71850483
    C      0.60947588     -0.14366212     -5.58919710
    H     -1.90137548     -2.47405522     -5.92460507
    C     -0.38607593     -0.94426345     -6.22885569
    N      1.33233771      0.41644226     -6.63306914
    N     -0.38218101     -0.72799548     -7.60175372
    H      2.12485158      1.04703138     -6.54865865
    C      0.77551855     -0.04381451     -7.82019851
    C      1.41400688      0.20987320     -9.14601191
    H      0.79283494     -0.24996262     -9.92723175
    H      2.42705920     -0.22693439     -9.19891878
    H      1.49834250      1.29055896     -9.35616140
    H     -1.22171176     -5.18534454      2.09688085
    O     -1.25707631     -4.22836744      2.29916081
    S      0.16815900     -3.90755493      3.18803575
    O      0.28482979     -4.99892089      4.18016692
    O     -0.24135066     -2.55915322      3.80204281
    O      1.24996566     -3.75066358      2.18097197
    O     -0.19616045     -2.33626384      6.47125485
    H     -0.20775554     -2.41337294      5.51228679
    H     -0.03390632     -3.22712478      6.77232028
