54
Energy:    -53.77838122
    H      4.67290655     -5.23771945      0.70393490
    C      4.51581703     -4.30596504      0.15349362
    C      3.37472822     -3.54128282      0.42166412
    C      5.44964600     -3.89371808     -0.80766032
    H      2.65476812     -3.87788175      1.17491549
    C      3.16925965     -2.33611344     -0.28748354
    H      6.33458903     -4.50831775     -1.00143617
    C      5.26479025     -2.69423306     -1.52723870
    C      1.98537563     -1.52736314     -0.02167423
    C      4.12011502     -1.92765834     -1.25318975
    C      6.27560648     -2.25488912     -2.56020987
    N      1.12796457     -1.67968151      0.99802395
    N      1.56228784     -0.47074958     -0.78990694
    H      3.98139688     -0.99549151     -1.81126797
    H      7.27327699     -2.11922877     -2.10629488
    H      5.98877155     -1.30208013     -3.03089633
    H      6.38152097     -3.00863375     -3.35883628
    H      1.17195437     -2.45576135      1.82349774
    C      0.09989141     -0.75533893      0.87207007
    H      2.00627746     -0.17677436     -1.65544596
    C      0.38885180      0.05533693     -0.25286705
    C     -1.05931314     -0.55443871      1.63764954
    C     -0.42303148      1.12926468     -0.62952437
    H     -1.29597189     -1.21238980      2.47842002
    C     -1.87254137      0.51528476      1.26407689
    H     -0.19159001      1.75103446     -1.49789364
    C     -1.53037672      1.41930450      0.19360285
    H     -2.83015212      0.65158597      1.77469967
    C     -2.33514677      2.64406248     -0.04440150
    C     -2.79359513      3.41989963      1.05887354
    C     -2.64411401      3.03978985     -1.36311757
    H     -2.53868229      3.09222268      2.06974507
    C     -3.50771916      4.60894295      0.88562845
    H     -2.33193371      2.42837528     -2.21594328
    C     -3.40728406      4.20133587     -1.52358039
    H     -3.85212688      5.19560396      1.74156138
    C     -3.77402819      5.03925882     -0.42602271
    N     -3.96709107      4.81523237     -2.63518383
    N     -4.37069408      6.20953120     -0.87999228
    H     -3.90830663      4.49224764     -3.59699008
    C     -4.62699377      5.95577667     -2.19376894
    C     -5.49973425      6.76553873     -3.09510986
    H     -5.90775243      7.60943862     -2.52155764
    H     -6.34088237      6.16833167     -3.48968377
    H     -4.93478505      7.16660291     -3.95484059
    H     -1.69371215     -2.37629855      4.92979088
    O     -0.92776823     -2.27974066      4.32814357
    S     -0.96817671     -3.66677808      3.32873907
    O     -1.22269701     -4.81209510      4.23011820
    O      0.47315330     -3.61051331      2.79742739
    O     -1.96197177     -3.37271448      2.26337718
    O      1.81276883     -5.91528406      2.95155164
    H      1.36477808     -5.06446077      2.91832480
    H      1.26767641     -6.44040722      3.53268839
