54
Energy:    -53.76920539
    H     -6.83808402      1.26011901     -1.19303143
    C     -5.86750589      1.76391170     -1.19318285
    C     -4.71426141      1.01928877     -0.92059918
    C     -5.79106952      3.13798668     -1.46128065
    H     -4.79145824     -0.05296363     -0.71240588
    C     -3.45825043      1.66734535     -0.92086676
    H     -6.70645627      3.70054664     -1.67104097
    C     -4.54793485      3.80530446     -1.46695261
    C     -2.24641598      0.90727644     -0.63790825
    C     -3.39226906      3.05421192     -1.19618041
    C     -4.47234362      5.28557740     -1.75829429
    N     -2.13915056     -0.42782976     -0.57368562
    N     -1.01167336      1.45404410     -0.38876412
    H     -2.42861935      3.57472838     -1.20459697
    H     -4.87983997      5.51420420     -2.75902678
    H     -3.43572632      5.65440933     -1.72585096
    H     -5.06102404      5.86542906     -1.02728101
    H     -2.96278358     -1.19208034     -0.72597378
    C     -0.83883941     -0.76509255     -0.22346750
    H     -0.82821319      2.45156184     -0.32546555
    C     -0.09284550      0.43607055     -0.14053796
    C     -0.24557700     -2.01141259      0.03139340
    C      1.27680136      0.44836941      0.13921588
    H     -0.83920545     -2.92946456      0.00714830
    C      1.12054327     -2.00304592      0.31219654
    H      1.84529031      1.37972901      0.19936241
    C      1.91565702     -0.80000566      0.28515464
    H      1.60295214     -2.93955999      0.60639898
    C      3.39328134     -0.87052812      0.41159020
    C      4.11744917     -1.89345875     -0.26554190
    C      4.07962345      0.07649413      1.20099273
    H      3.56172850     -2.61301164     -0.87186870
    C      5.51245643     -1.96991460     -0.22172121
    H      3.52898166      0.84114850      1.75839144
    C      5.47115798     -0.04278810      1.28326912
    H      6.05575730     -2.75954413     -0.74776148
    C      6.20843353     -0.99851902      0.51890522
    N      6.43260948      0.62963420      2.02446698
    N      7.57521569     -0.78519425      0.65319987
    H      6.26722432      1.38363543      2.68550851
    C      7.66797361      0.08244760      1.69947115
    C      8.91304675      0.43855601      2.44296672
    H      9.75317931     -0.11878531      2.00575287
    H      8.83564941      0.17685554      3.51319918
    H      9.13385311      1.51808028      2.37205206
    H     -2.04366591     -5.31616403     -0.60525733
    O     -2.22051500     -4.37841539     -0.82280016
    S     -3.26634427     -3.82396333      0.41135503
    O     -4.28758644     -4.88016413      0.58605571
    O     -3.79916678     -2.56252559     -0.28704670
    O     -2.39258118     -3.48920558      1.56615947
    O     -6.43857824     -2.31561710     -0.30357288
    H     -5.48276534     -2.41675477     -0.34708005
    H     -6.74811495     -3.17095707     -0.01516246
