54
Energy:    -54.15796381
    H      3.39513523     -5.71389708      2.35727149
    C      3.16442417     -5.18265158      1.42970498
    C      2.45023323     -3.98073513      1.49347125
    C      3.58070565     -5.70871622      0.19854020
    H      2.13176340     -3.58397810      2.46310512
    C      2.15120943     -3.29131485      0.29646438
    H      4.13749180     -6.65090869      0.17268412
    C      3.29337226     -5.03732060     -1.00868655
    C      1.40705881     -2.03820473      0.34408673
    C      2.57925623     -3.82966450     -0.94067166
    C      3.74628666     -5.60862146     -2.33167026
    N      1.13130195     -1.31555194      1.43947255
    N      0.86600071     -1.39945085     -0.74442906
    H      2.36074619     -3.30945841     -1.87943041
    H      4.84528744     -5.71351239     -2.36304210
    H      3.44609107     -4.96873619     -3.17552714
    H      3.31900996     -6.61193326     -2.49886195
    H      1.42460589     -1.54937775      2.50949137
    C      0.35422383     -0.22228416      1.08152960
    H      0.88590828     -1.76493113     -1.69244480
    C      0.20979683     -0.24292252     -0.32733232
    C     -0.23888920      0.78309585      1.86105251
    C     -0.47465246      0.75734048     -1.02400232
    H     -0.15810221      0.76692200      2.95147163
    C     -0.92377422      1.78211325      1.16960349
    H     -0.57965821      0.73474548     -2.11151842
    C     -0.97958876      1.83681842     -0.27058230
    H     -1.47742491      2.53260457      1.74106275
    C     -1.56434868      3.01595131     -0.95762993
    C     -1.29007797      4.32840748     -0.47643517
    C     -2.39006315      2.83612431     -2.08764359
    H     -0.64597705      4.43973480      0.39932406
    C     -1.77237758      5.47177367     -1.11979497
    H     -2.64043552      1.83040987     -2.44041569
    C     -2.91333425      3.98493314     -2.69079500
    H     -1.55266581      6.47340237     -0.74048546
    C     -2.55182603      5.30400306     -2.27773889
    N     -3.81606689      4.17752792     -3.72708455
    N     -3.07103431      6.25159085     -3.15188770
    H     -4.28437722      3.45177001     -4.26262808
    C     -3.96614798      5.54816555     -3.90025549
    C     -5.00175789      6.12366851     -4.80916387
    H     -4.92558936      7.21946479     -4.77696358
    H     -6.02101495      5.83216328     -4.49930141
    H     -4.85584950      5.79270067     -5.85239349
    H      0.46447436      1.18092424      5.59024039
    O      0.85181045      0.64955879      4.86526141
    S      0.08856243     -0.87683691      4.97427345
    O      0.09522241     -1.23495776      6.40979465
    O      1.08259754     -1.69262506      4.13208944
    O     -1.22251866     -0.72672795      4.29043745
    O      2.16300740     -3.89751298      5.14590230
    H      1.80843274     -3.08837483      4.76475632
    H      1.88353641     -3.86470765      6.05772453
