54
Energy:    -54.15794730
    H      1.75887630     -6.40865214      2.35962387
    C      1.67814754     -5.83531308      1.43194171
    C      1.30744762     -4.48723432      1.49521269
    C      1.94188694     -6.45282412      0.20111978
    H      1.10413450     -4.02031363      2.46458251
    C      1.20304042     -3.74328779      0.29805619
    H      2.22948716     -7.50878024      0.17564824
    C      1.84399553     -5.72935378     -1.00624800
    C      0.81701832     -2.33791207      0.34516271
    C      1.47488164     -4.37575976     -0.93872656
    C      2.13120345     -6.40018565     -2.32885838
    N      0.74099100     -1.56801810      1.44043533
    N      0.46566319     -1.57876498     -0.74381033
    H      1.40301103     -3.81629590     -1.87758960
    H      3.16329244     -6.79220181     -2.35893597
    H      2.01211669     -5.70368872     -3.17288169
    H      1.45383216     -7.25464027     -2.49687159
    H      0.96061923     -1.87110558      2.51073595
    C      0.28141599     -0.30808044      1.08188838
    H      0.38931161     -1.93650532     -1.69191279
    C      0.13843029     -0.28979395     -0.32715303
    C     -0.02543022      0.81844341      1.86100161
    C     -0.25601239      0.85593143     -1.02434335
    H      0.04683834      0.78149250      2.95151245
    C     -0.42062925      1.96308304      1.16903136
    H     -0.36190036      0.86190581     -2.11199221
    C     -0.45818279      2.03057317     -0.27120398
    H     -0.75662095      2.83335781      1.74005097
    C     -0.70916277      3.32240627     -0.95859708
    C     -0.09791307      4.51548441     -0.47667139
    C     -1.55161971      3.36749919     -2.08966115
    H      0.55159371      4.45239439      0.39989839
    C     -0.25960693      5.74570988     -1.12026396
    H     -2.05879999      2.46390292     -2.44304188
    C     -1.75143361      4.61381787     -2.69309315
    H      0.21689173      6.65348150     -0.74038409
    C     -1.05422206      5.79018367     -2.27919876
    N     -2.56971274      5.03843861     -3.73041252
    N     -1.30303648      6.84137453     -3.15368442
    H     -3.21273785      4.46249136     -4.26674216
    C     -2.35146976      6.39991717     -3.90334637
    C     -3.19670479      7.22896286     -4.81332824
    H     -2.83327603      8.26552596     -4.78070181
    H     -4.25715156      7.21761978     -4.50478493
    H     -3.14229606      6.87115414     -5.85648193
    H      0.75350112      1.01602550      5.59115674
    O      0.98729445      0.40107623      4.86648366
    S     -0.15285204     -0.86888352      4.97410898
    O     -0.24299723     -1.21596055      6.40952787
    O      0.59087534     -1.91868695      4.13287635
    O     -1.37660103     -0.37715002      4.28873714
    O      1.04794825     -4.33086749      5.14732181
    H      0.92064131     -3.45675007      4.76599298
    H      0.78598236     -4.22524319      6.05881365
