54
Energy:    -54.15793348
    H     -0.20283367     -6.64277508      2.35895967
    C     -0.11247534     -6.07095080      1.43123053
    C     -0.06969821     -4.67349341      1.49464165
    C     -0.04400601     -6.73856744      0.20021429
    H     -0.12513369     -4.16754604      2.46416378
    C      0.04788585     -3.93161460      0.29742369
    H     -0.08012720     -7.83238966      0.17463683
    C      0.07376109     -6.01817416     -1.00721828
    C      0.09286871     -2.47488649      0.34467572
    C      0.11968397     -4.61591366     -0.93956048
    C      0.14882749     -6.74364492     -2.33004072
    N      0.24846697     -1.71689664      1.43983762
    N     -0.02091697     -1.64578092     -0.74401788
    H      0.21440620     -4.05995615     -1.87847897
    H      1.01968259     -7.42218290     -2.36145127
    H      0.23891192     -6.04284024     -3.17409202
    H     -0.75035041     -7.36073572     -2.49686713
    H      0.37062969     -2.07137155      2.50991509
    C      0.17975720     -0.37744205      1.08158021
    H     -0.20056773     -1.96504219     -1.69191231
    C      0.04649662     -0.31766066     -0.32726499
    C      0.21933404      0.78937811      1.86080571
    C      0.00592038      0.89351525     -1.02422446
    H      0.27906506      0.73262875      2.95122476
    C      0.17772268      1.99973838      1.16906766
    H     -0.09505669      0.93056052     -2.11172585
    C      0.15966390      2.07550113     -0.27113263
    H      0.11369659      2.93028238      1.74031238
    C      0.29922613      3.38406194     -0.95853643
    C      1.23536956      4.34418814     -0.47780039
    C     -0.49420591      3.67538590     -2.08843419
    H      1.83874575      4.09251717      0.39787815
    C      1.44218060      5.56757546     -1.12151125
    H     -1.24547156      2.96124477     -2.44085209
    C     -0.31902907      4.92537188     -2.69193574
    H      2.16539199      6.29473745     -0.74255251
    C      0.69424739      5.84422437     -2.27934642
    N     -0.97746749      5.57226433     -3.72822914
    N      0.76475486      6.92220112     -3.15377813
    H     -1.76233595      5.21127257     -4.26349772
    C     -0.36824852      6.80914272     -3.90184974
    C     -0.93318113      7.85044883     -4.81088150
    H     -0.28059556      8.73403644     -4.77905389
    H     -1.94951380      8.15182083     -4.50085275
    H     -0.98802400      7.49263252     -5.85400984
    H      1.02720164      0.74830226      5.58981264
    O      1.06852499      0.09187894      4.86498590
    S     -0.39486783     -0.78606737      4.97456125
    O     -0.58117934     -1.09141887      6.41020205
    O      0.00556951     -2.00820256      4.13258411
    O     -1.42053787      0.04430545      4.29076308
    O     -0.26646993     -4.44817188      5.14706588
    H     -0.13128441     -3.57526753      4.76566993
    H     -0.48441507     -4.27022408      6.05889618
