54
Energy:    -54.15791999
    H     -3.65620568      5.54952225      2.35950363
    C     -3.40132675      5.02976925      1.43175229
    C     -2.63206453      3.86230740      1.49504892
    C     -3.84193433      5.53620158      0.20082083
    H     -2.29524148      3.48055753      2.46450561
    C     -2.30167477      3.18778230      0.29780229
    H     -4.44188793      6.45152228      0.17533208
    C     -3.52406236      4.87914096     -1.00663839
    C     -1.50011193      1.97057709      0.34493511
    C     -2.75460721      3.70594124     -0.93909445
    C     -4.00338985      5.42907937     -2.32936848
    N     -1.19078425      1.26127173      1.44007953
    N     -0.93027224      1.35788148     -0.74387332
    H     -2.51243198      3.19665149     -1.87803221
    H     -5.10608502      5.48281958     -2.36042250
    H     -3.67403225      4.80401277     -3.17345398
    H     -3.62322064      6.45119042     -2.49644144
    H     -1.49433498      1.48098758      2.51023087
    C     -0.36386608      0.20535469      1.08167538
    H     -0.96739657      1.72225070     -1.69179888
    C     -0.22094454      0.23298797     -0.32722023
    C      0.27551920     -0.77156347      1.86080655
    C      0.50903106     -0.73425261     -1.02430508
    H      0.19437081     -0.75939856      2.95125093
    C      1.00587365     -1.73754069      1.16894284
    H      0.61257221     -0.70656627     -2.11184391
    C      1.06376908     -1.78927847     -0.27127045
    H      1.59394283     -2.46163248      1.74008007
    C      1.70247338     -2.93982820     -0.95874782
    C      1.48959073     -4.26371233     -0.47778442
    C      2.51863081     -2.72159605     -2.08894019
    H      0.85159873     -4.40502768      0.39812093
    C      2.02429619     -5.38330244     -1.12153829
    H      2.72192352     -1.70526078     -2.44154574
    C      3.09452750     -3.84472877     -2.69249789
    H      1.85144859     -6.39413813     -0.74240257
    C      2.79478977     -5.17925642     -2.27965136
    N      4.00494354     -3.99495985     -3.72907313
    N      3.35720686     -6.10151451     -3.15415866
    H      4.43889117     -3.24811647     -4.26457328
    C      4.21847541     -5.35710955     -3.90260221
    C      5.27944527     -5.88369186     -4.81192064
    H      5.25426337     -6.98185033     -4.77995429
    H      6.28414902     -5.54522861     -4.50226275
    H      5.11803264     -5.55962922     -5.85503443
    H     -0.40757269     -1.20244926      5.59008971
    O     -0.81937182     -0.68948850      4.86533752
    S     -0.12781245      0.87068591      4.97449994
    O     -0.15070015      1.22779598      6.41010593
    O     -1.15889869      1.63960927      4.13277075
    O      1.18863586      0.78178371      4.29027902
    O     -2.34025924      3.79171610      5.14739168
    H     -1.94859633      3.00000426      4.76595683
    H     -2.05931446      3.77171664      6.05913180
