54
Energy:    -54.15790054
    H      1.60740132      6.44874722      2.35843445
    C      1.39760407      5.90907083      1.43076882
    C      1.05949240      4.55246348      1.49429047
    C      1.47193639      6.57600387      0.19972210
    H      1.00663579      4.04628274      2.46383481
    C      0.78695926      3.85236822      0.29715500
    H      1.73916900      7.63729274      0.17405746
    C      1.20377761      5.89694419     -1.00762948
    C      0.43411976      2.43830541      0.34452235
    C      0.86157436      4.53631006     -0.93986001
    C      1.28390668      6.62181309     -2.33048488
    N      0.12161668      1.73056440      1.43977733
    N      0.36922722      1.60390795     -0.74414051
    H      0.65087401      4.01306480     -1.87871503
    H      0.57672732      7.46958097     -2.36172567
    H      1.04704922      5.95603265     -3.17446352
    H      2.29344477      7.03420227     -2.49758066
    H      0.07767480      2.10290034      2.50986007
    C     -0.09535375      0.40699359      1.08159839
    H      0.61224396      1.87779935     -1.69210273
    C      0.02183379      0.32029092     -0.32727589
    C     -0.38124632     -0.72488792      1.86091712
    C     -0.19551763     -0.87195835     -1.02415899
    H     -0.42730210     -0.65674521      2.95134705
    C     -0.59741185     -1.91655950      1.16925512
    H     -0.10497483     -0.92959101     -2.11168300
    C     -0.59620333     -1.99445267     -0.27094424
    H     -0.73201034     -2.83950973      1.74055024
    C     -1.01024434     -3.24367468     -0.95821958
    C     -2.12856467     -3.98345502     -0.47718040
    C     -0.29692261     -3.69663601     -2.08829531
    H     -2.66462676     -3.60954960      0.39863131
    C     -2.59025327     -5.13517989     -1.12075204
    H      0.58859755     -3.15804248     -2.44095245
    C     -0.73332605     -4.88106189     -2.69166366
    H     -3.45111124     -5.69244651     -0.74156017
    C     -1.91829122     -5.56415255     -2.27875483
    N     -0.22730033     -5.65287977     -3.72807581
    N     -2.21600224     -6.60267984     -3.15309184
    H      0.61612742     -5.46653332     -4.26356682
    C     -1.08498454     -6.73245252     -3.90145541
    C     -0.75393863     -7.86988550     -4.81055431
    H     -1.57903635     -8.59500224     -4.77850008
    H      0.17545871     -8.37990733     -4.50075872
    H     -0.62474100     -7.53185250     -5.85372192
    H     -1.16106337     -0.51337973      5.59012342
    O     -1.06244424      0.13686679      4.86526018
    S      0.55386342      0.68454527      4.97440613
    O      0.80105973      0.94347057      6.40997838
    O      0.42146074      1.96378569      4.13244207
    O      1.37995544     -0.34444435      4.29041029
    O      1.20496620      4.29060185      5.14667771
    H      0.88765938      3.46620613      4.76537982
    H      1.38045400      4.07050471      6.05846786
