54
Energy:    -54.15788749
    H      2.25029977      6.25382482      2.35756630
    C      1.98710281      5.73795453      1.42997037
    C      1.51373246      4.42243171      1.49367460
    C      2.12842960      6.39379132      0.19883031
    H      1.41001015      3.92431846      2.46328992
    C      1.17192830      3.75325755      0.29662954
    H      2.50146207      7.42266777      0.17302295
    C      1.79310179      5.74510202     -1.00843372
    C      0.67810414      2.38205772      0.34418719
    C      1.31525406      4.42598678     -0.94048125
    C      1.94604808      6.45797967     -2.33139059
    N      0.29570657      1.70965112      1.43953209
    N      0.52931530      1.55831702     -0.74435778
    H      1.05281803      3.92655317     -1.87926898
    H      1.32808852      7.37281824     -2.36278137
    H      1.64319366      5.81939465     -3.17528239
    H      2.99207187      6.76629691     -2.49850645
    H      0.28956042      2.08467895      2.50955936
    C     -0.05379556      0.41470137      1.08153570
    H      0.79876953      1.80612971     -1.69235002
    C      0.05407233      0.31640082     -0.32732147
    C     -0.45253910     -0.68241151      1.86100660
    C     -0.28254024     -0.84791008     -1.02404099
    H     -0.49150518     -0.60980567      2.95142489
    C     -0.78791365     -1.84626667      1.16950816
    H     -0.19825333     -0.91455130     -2.11155313
    C     -0.79454167     -1.92409622     -0.27067990
    H     -1.01503423     -2.75082398      1.74093121
    C     -1.33259165     -3.12522626     -0.95779112
    C     -2.51990807     -3.74823056     -0.47668888
    C     -0.66862677     -3.64806779     -2.08777359
    H     -3.01549592     -3.32197741      0.39904792
    C     -3.09551827     -4.84754405     -1.12011232
    H      0.26676114     -3.20169575     -2.44047385
    C     -1.22238404     -4.78246243     -2.69098804
    H     -4.00825622     -5.31498012     -0.74087366
    C     -2.47027869     -5.34234728     -2.27802693
    N     -0.79685489     -5.60158494     -3.72726902
    N     -2.87131353     -6.34563368     -3.15222568
    H      0.06109156     -5.50143622     -4.26275396
    C     -1.75916245     -6.58905953     -3.90052632
    C     -1.54464034     -7.75424082     -4.80944812
    H     -2.43874128     -8.39233125     -4.77732147
    H     -0.67150100     -8.35545729     -4.49954260
    H     -1.38194436     -7.43113538     -5.85265945
    H     -1.20710367     -0.39269111      5.59015187
    O     -1.04331144      0.24416674      4.86519864
    S      0.62003492      0.62585316      4.97432871
    O      0.89207821      0.85870585      6.40987323
    O      0.61750248      1.91180047      4.13217485
    O      1.33801761     -0.48139379      4.29051366
    O      1.63192053      4.14776088      5.14611108
    H      1.23300288      3.35956273      4.76491771
    H      1.78427674      3.91119693      6.05793622
