47
Energy:    -36.25443560
    H     -0.85043323      6.79935185     -4.39099573
    C     -1.18109935      5.78529863     -4.14295946
    C     -0.56881866      5.09676808     -3.08794096
    C     -2.21000586      5.18691606     -4.88261863
    H      0.23328401      5.59247231     -2.53117296
    C     -0.98725606      3.78930955     -2.76255141
    H     -2.67804778      5.73708707     -5.70547379
    C     -2.64616959      3.87917898     -4.57595606
    C     -0.38541395      3.01928915     -1.66856575
    C     -2.02536850      3.19777241     -3.51597252
    C     -3.75783643      3.23597261     -5.37352511
    N     -0.68381900      1.75542778     -1.37526238
    N      0.57724087      3.54397525     -0.81057846
    H     -2.33830829      2.18399775     -3.24920928
    H     -4.70362355      3.79609894     -5.26030313
    H     -3.51777068      3.22092125     -6.45070332
    H     -3.93747890      2.20014961     -5.04848926
    C      0.10882146      1.43445232     -0.28342546
    H      0.93525122      4.49389721     -0.81735040
    C      0.91688594      2.55057841      0.09314769
    C      0.19620138      0.23042222      0.43620310
    C      1.81244040      2.49817063      1.17045481
    H     -0.42402483     -0.62207469      0.14693078
    C      1.04740595      0.16759002      1.55543180
    H      2.42832872      3.35516597      1.45709146
    C      1.88554052      1.28914349      1.86939239
    C      1.08103522     -1.05030206      2.40853963
    H      2.60919112      1.19461703      2.68461541
    C      1.17144423     -0.93466125      3.82602240
    C      1.02104519     -2.32812131      1.81364118
    H      1.21522088      0.06695369      4.26378619
    C      1.15229569     -2.04775737      4.67130008
    H      0.99225730     -2.42973090      0.72465645
    C      1.00307656     -3.43649219      2.66542115
    H      1.22158114     -1.93913091      5.75644929
    C      1.03833627     -3.32250989      4.08888762
    N      0.95241307     -4.80429677      2.42934948
    N      0.94966783     -4.57774285      4.68420109
    H      0.91749464     -5.25747735      1.52099214
    C      0.95618072     -5.44092055      3.66502945
    C      0.96715392     -6.93006863      3.78893093
    H      0.96926658     -7.19077872      4.85585023
    H      1.86356287     -7.37031558      3.31734360
    H      0.07682055     -7.38280534      3.31829735
    O      0.87061304     -5.99825254     -0.04128546
    H      1.61695490     -6.09334596     -0.64097794
    H      0.10846247     -6.14419339     -0.59664820
