47
Energy:    -36.25423306
    H      7.14076303      2.20984892     -3.21889445
    C      6.06468277      2.37445232     -3.10005424
    C      5.33468508      1.56713668     -2.21836788
    C      5.42941324      3.38762921     -3.83060965
    H      5.86128460      0.78329649     -1.66395872
    C      3.94764358      1.77098291     -2.06032170
    H      6.01305327      4.00967503     -4.51709731
    C      4.04207766      3.61090192     -3.68952004
    C      3.13091609      0.95896767     -1.15173078
    C      3.31962501      2.79560808     -2.80259720
    C      3.35873055      4.70584458     -4.47677559
    N      1.80865675      1.05375214     -1.02899471
    N      3.66792476     -0.01133626     -0.31014063
    H      2.24383883      2.94078499     -2.66680043
    H      3.75263052      5.70018227     -4.19890985
    H      3.52800827      4.58212137     -5.56038467
    H      2.27290591      4.71053058     -4.29841670
    C      1.46009879      0.11364360     -0.07081138
    H      4.65190365     -0.23712821     -0.20349848
    C      2.62012260     -0.57439653      0.39978242
    C      0.19431298     -0.20921146      0.44758990
    C      2.55175203     -1.57866785      1.37554858
    H     -0.69193087      0.31947136      0.08679034
    C      0.10342266     -1.17563606      1.46687026
    H      3.44212783     -2.10219731      1.73480870
    C      1.28182862     -1.88591036      1.87404689
    C     -1.20227283     -1.46159853      2.11922733
    H      1.18310972     -2.69845033      2.60015113
    C     -1.27141401     -1.68642571      3.52474369
    C     -2.38051661     -1.50891120      1.34474162
    H     -0.34438736     -1.64309780      4.10399345
    C     -2.48114769     -1.90561817      4.18983248
    H     -2.33392397     -1.37795864      0.25951282
    C     -3.58634637     -1.72933142      2.01684839
    H     -2.51438282     -2.07513455      5.26886381
    C     -3.66604802     -1.90067408      3.43275140
    N     -4.90089464     -1.83604765      1.58123330
    N     -4.99070972     -2.04360824      3.83612617
    H     -5.22448598     -1.76503998      0.62105022
    C     -5.69447917     -2.05610851      2.70105731
    C     -7.16851140     -2.27806379      2.59618204
    H     -7.57085284     -2.42853757      3.60700844
    H     -7.40278073     -3.16960771      1.98788250
    H     -7.67789310     -1.41075432      2.14069925
    O     -5.74121970     -1.65071368     -1.02563519
    H     -5.64177124     -2.33479895     -1.69484170
    H     -5.91954975     -0.85986526     -1.52898117
