47
Energy:    -36.25416481
    H      1.32110161     -7.21479181     -3.52656354
    C      1.53547718     -6.14337148     -3.45398542
    C      0.94247142     -5.38679438     -2.43518159
    C      2.39762558     -5.54050679     -4.37976095
    H      0.27234651     -5.88835526     -1.72917076
    C      1.21162631     -4.00550024     -2.33519091
    H      2.85252953     -6.14464811     -5.17154226
    C      2.68239381     -4.15954747     -4.30029127
    C      0.62179761     -3.16198038     -1.28995105
    C      2.08242596     -3.41026138     -3.27467783
    C      3.61448755     -3.51120939     -5.29853622
    N      0.77529273     -1.84246759     -1.20195538
    N     -0.17333402     -3.66738015     -0.26502240
    H      2.28118819     -2.33850621     -3.18157872
    H      4.63332498     -3.93224323     -5.22254413
    H      3.27046836     -3.68149209     -6.33334325
    H      3.68453813     -2.42521400     -5.13557634
    C      0.05729977     -1.46304006     -0.07770769
    H     -0.39969609     -4.64402355     -0.10534493
    C     -0.55313763     -2.60086118      0.53322788
    C     -0.11996247     -0.18632639      0.48244347
    C     -1.33803345     -2.49959054      1.69039589
    H      0.34911344      0.68286269      0.01384115
    C     -0.85842390     -0.06344408      1.67439340
    H     -1.80248606     -3.37306403      2.15649442
    C     -1.50390561     -1.21927311      2.22786933
    C     -0.97149504      1.25267684      2.35793246
    H     -2.15053714     -1.09422369      3.10161089
    C     -0.90663123      1.33422211      3.77918087
    C     -1.14177784      2.42847953      1.59713235
    H     -0.77274366      0.40881288      4.34705224
    C     -0.95437185      2.55256306      4.46270861
    H     -1.23342688      2.37352809      0.50826974
    C     -1.18941313      3.64298330      2.28782004
    H     -0.90209330      2.59524086      5.55339397
    C     -1.06980184      3.73359677      3.70837427
    N     -1.34589223      4.95817982      1.86953974
    N     -1.09246773      5.06351717      4.11906637
    H     -1.46097726      5.27550741      0.91153993
    C     -1.31420408      5.76250990      3.00279080
    C     -1.51255670      7.24183480      2.93007161
    H     -1.44533186      7.65262779      3.94644799
    H     -2.50164844      7.49895146      2.51132400
    H     -0.74124630      7.72421581      2.30433299
    O     -1.66675372      5.78169986     -0.72952155
    H     -2.47413300      5.69904531     -1.24624869
    H     -0.98902617      5.93506111     -1.38355954
