47
Energy:    -36.25412355
    H     -4.23233399     -6.20429382     -3.13516101
    C     -3.31510238     -5.60724145     -3.09800397
    C     -3.19171070     -4.58745421     -2.14572540
    C     -2.27669046     -5.86736502     -4.00235037
    H     -4.02240405     -4.40912914     -1.45490652
    C     -2.01426949     -3.81212213     -2.09179602
    H     -2.38832404     -6.66688679     -4.74204279
    C     -1.08849084     -5.10482809     -3.96805618
    C     -1.82647367     -2.73231896     -1.11675354
    C     -0.97521796     -4.08467117     -3.00903423
    C      0.03168777     -5.38826646     -4.94299032
    N     -0.77388307     -1.91808002     -1.07820538
    N     -2.74884579     -2.44555778     -0.11418698
    H     -0.06874476     -3.47482365     -2.95224199
    H      0.43956106     -6.40456307     -4.79515738
    H     -0.32439470     -5.33119993     -5.98612008
    H      0.85826051     -4.67171534     -4.82390636
    C     -1.00862195     -1.06412613     -0.01093203
    H     -3.60778130     -2.95228519      0.07561846
    C     -2.25337499     -1.37761407      0.61582803
    C     -0.21992340     -0.01099327      0.48308697
    C     -2.73437186     -0.66709612      1.72450348
    H      0.73288536      0.22637983      0.00254614
    C     -0.65325282      0.68372449      1.62797249
    H     -3.68701581     -0.91092648      2.20297633
    C     -1.93502264      0.37885487      2.19634177
    C      0.20775252      1.72677410      2.24676350
    H     -2.30100188      0.98774583      3.02851062
    C      0.30345552      1.83390505      3.66456740
    C      0.93637821      2.61475907      1.42767114
    H     -0.26992433      1.13301104      4.27838262
    C      1.13989136      2.76221007      4.29104077
    H      0.83920645      2.56791764      0.33890830
    C      1.77009602      3.54080674      2.06146002
    H      1.20080947      2.82878970      5.38007940
    C      1.91046657      3.61505048      3.48106418
    N      2.60636620      4.53922391      1.57875790
    N      2.84591482      4.58447381      3.83181336
    H      2.75904784      4.77705338      0.60313991
    C      3.19879753      5.15332072      2.67608157
    C      4.12161996      6.31939915      2.52879324
    H      4.45731213      6.62633501      3.52848926
    H      3.61887639      7.17704486      2.04769685
    H      5.00864213      6.06084075      1.92422792
    O      2.98775708      5.16460147     -1.06693706
    H      2.36858198      5.64920315     -1.62144893
    H      3.57381000      4.74213315     -1.69036508
