47
Energy:    -36.25410110
    H      6.73183223     -3.54918534     -2.88458704
    C      6.05553501     -2.68855126     -2.85146523
    C      4.97240907     -2.69378424     -1.96330037
    C      6.27858886     -1.59353138     -3.69703276
    H      4.82556772     -3.56581466     -1.31748107
    C      4.09502026     -1.59002431     -1.91514559
    H      7.12865098     -1.60455343     -4.38704357
    C      5.41418248     -0.47712203     -3.66722052
    C      2.94518247     -1.53724065     -1.00572988
    C      4.33116250     -0.49275149     -2.77273887
    C      5.65757780      0.70433591     -4.57856560
    N      2.04099551     -0.56040366     -0.98016771
    N      2.67945256     -2.52327722     -0.05954728
    H      3.64188285      0.35523317     -2.72127452
    H      6.62323420      1.19039499     -4.34981185
    H      5.69599052      0.39026843     -5.63594778
    H      4.86539119      1.46100573     -4.47493082
    C      1.14709145     -0.91300985      0.01984050
    H      3.24692098     -3.34340985      0.13000764
    C      1.52945953     -2.15258834      0.61796491
    C      0.00059025     -0.23893757      0.47409875
    C      0.79721434     -2.73992002      1.65922063
    H     -0.28947481      0.71016444      0.01564742
    C     -0.72234288     -0.77904594      1.55429347
    H      1.09381195     -3.68821893      2.11603463
    C     -0.34172002     -2.05367272      2.09223008
    C     -1.87280446     -0.03755109      2.13636610
    H     -0.96605251     -2.50587380      2.86870746
    C     -2.07461859     -0.01289268      3.54685077
    C     -2.76934777      0.64772515      1.28964798
    H     -1.36511653     -0.55064603      4.18262917
    C     -3.10931126      0.71357366      4.14309043
    H     -2.64751844      0.60220436      0.20331172
    C     -3.80200625      1.37136063      1.89322577
    H     -3.24760500      0.72131528      5.22704795
    C     -3.97514711      1.44320227      3.30933065
    N     -4.83840327      2.13980447      1.37887055
    N     -5.04249875      2.27668912      3.63171267
    H     -5.02844628      2.31386955      0.39637882
    C     -5.56816656      2.62969093      2.45574835
    C     -6.79940954      3.45548011      2.26827317
    H     -7.19528711      3.72016674      3.25797663
    H     -7.57858142      2.90293585      1.71388428
    H     -6.58301935      4.38666679      1.71579996
    O     -5.33142047      2.58101941     -1.28543458
    H     -5.72495485      1.94751339     -1.89330037
    H     -4.92449148      3.22738613     -1.85746505
