47
Energy:    -36.25115833
    H      6.92630712     -1.12724624     -4.12191662
    C      6.05608000     -0.50606224     -3.88527090
    C      5.16059889     -0.92003837     -2.89090510
    C      5.84620251      0.69335921     -4.57891752
    H      5.35288594     -1.86332831     -2.36907008
    C      4.03583801     -0.12688091     -2.58069518
    H      6.55413067      1.00308309     -5.35464352
    C      4.72762743      1.50430604     -4.28632219
    C      3.06445874     -0.50714549     -1.54930235
    C      3.83599717      1.07976950     -3.28730358
    C      4.50392917      2.79908425     -5.03408050
    N      1.94501087      0.16004626     -1.27707151
    N      3.21949063     -1.62623239     -0.73582117
    H      2.95958424      1.68316413     -3.03304326
    H      5.32588957      3.51342890     -4.84655229
    H      4.46626048      2.62812541     -6.12381677
    H      3.56206823      3.28029103     -4.73045739
    C      1.33991905     -0.54252796     -0.24572997
    H      4.00873217     -2.26472013     -0.73537848
    C      2.12747357     -1.67841135      0.11488036
    C      0.13594541     -0.28034873      0.43021271
    C      1.74559645     -2.56250236      1.13365803
    H     -0.46456185      0.59018662      0.15332060
    C     -0.24394852     -1.12113619      1.49319298
    H      2.35185534     -3.43021786      1.40832141
    C      0.54234841     -2.28421812      1.78967330
    C     -1.45065656     -0.81006470      2.30515063
    H      0.18693936     -2.97949422      2.55613892
    C     -1.43740279     -1.00040881      3.71738200
    C     -2.61530156     -0.32170386      1.67631780
    H     -0.52211082     -1.37875887      4.18200857
    C     -2.52781061     -0.67198014      4.52793083
    H     -2.65032773     -0.20999095      0.58850605
    C     -3.70190938      0.00380388      2.49342621
    H     -2.49862404     -0.82410345      5.60966815
    C     -3.67324947     -0.13403606      3.91492920
    N     -4.97207167      0.49443318      2.21927909
    N     -4.86469517      0.31712208      4.47598489
    H     -5.34732669      0.71411286      1.30133056
    C     -5.63648078      0.63213324      3.43246013
    C     -7.05833679      1.08528448      3.51000665
    H     -7.35756061      1.11415078      4.56637914
    H     -7.73390751      0.39718383      2.97159909
    H     -7.18638423      2.09450608      3.08077989
    O     -5.95879308      1.07232940     -0.27645907
    H     -5.81958198      1.87491994     -0.78848317
    H     -6.26012758      0.43673352     -0.92129657
