47
Energy:    -36.25114162
    H     -6.22797899      3.40182957     -3.98427088
    C     -5.61897267      2.52113638     -3.75480014
    C     -4.60746580      2.61192227     -2.79010445
    C     -5.85568394      1.31505884     -4.42796486
    H     -4.44752955      3.56957461     -2.28374055
    C     -3.81685401      1.48280345     -2.48937252
    H     -6.64898660      1.25987471     -5.18060528
    C     -5.07751758      0.17117797     -4.14432659
    C     -2.74470198      1.51617403     -1.48870953
    C     -4.06584755      0.27325768     -3.17511170
    C     -5.33570610     -1.12978413     -4.86990932
    N     -1.91672156      0.50665654     -1.22843879
    N     -2.48079653      2.62931610     -0.69535548
    H     -3.44439580     -0.59267345     -2.92854730
    H     -6.34785342     -1.51410809     -4.64871505
    H     -5.27273124     -0.99501256     -5.96354628
    H     -4.60928967     -1.90308111     -4.57805330
    C     -1.07705843      0.96897487     -0.22612168
    H     -3.00103805      3.50103271     -0.69007266
    C     -1.41381249      2.31105068      0.12876174
    C     -0.01848200      0.31502215      0.42729302
    C     -0.72132608      3.02064291      1.11987043
    H      0.23670880     -0.71248373      0.15486077
    C      0.65847931      0.98517587      1.46353014
    H     -0.98294969      4.04746295      1.39026586
    C      0.33044212      2.35159633      1.75371925
    C      1.70666870      0.28597677      2.25384947
    H      0.92572074      2.89021417      2.49717617
    C      1.80048363      0.48556776      3.66174371
    C      2.61282639     -0.58179158      1.60872830
    H      1.08560584      1.16208585      4.13929896
    C      2.73353317     -0.18977394      4.45368824
    H      2.57588479     -0.71134704      0.52296051
    C      3.54350678     -1.25300386      2.40725575
    H      2.78971627     -0.02438407      5.53240907
    C      3.60502570     -1.09725547      3.82586418
    N      4.55807538     -2.15522197      2.11427275
    N      4.58336728     -1.92555519      4.36866924
    H      4.80798261     -2.50161376      1.19271749
    C      5.16880987     -2.49979838      3.31447252
    C      6.34873453     -3.41514853      3.36874868
    H      6.64988039     -3.53330530      4.41833962
    H      7.20440004     -3.00897257      2.80075341
    H      6.10845147     -4.41141295      2.95779703
    O      5.21273331     -3.06724511     -0.39090768
    H      4.79057080     -3.77827236     -0.88276037
    H      5.69609179     -2.58234005     -1.05561187
