47
Energy:    -36.25110777
    H     -0.38091677     -7.23644707     -3.70450126
    C      0.14508873     -6.29373725     -3.52070134
    C     -0.36430758     -5.38944476     -2.58006512
    C      1.31905404     -6.00096976     -4.22773646
    H     -1.28463552     -5.64811764     -2.04605497
    C      0.30586687     -4.17175923     -2.33814745
    H      1.70426413     -6.71708519     -4.96097166
    C      2.00764172     -4.78860448     -4.00307126
    C     -0.17807779     -3.18641942     -1.36508373
    C      1.48812429     -3.88896375     -3.05754379
    C      3.27523432     -4.47534480     -4.76511546
    N      0.36753688     -1.98938924     -1.16053206
    N     -1.27838401     -3.40930528     -0.54180362
    H      1.99571657     -2.94093368     -2.85649140
    H      4.07059970     -5.20580079     -4.53080378
    H      3.10597386     -4.51986688     -5.85485840
    H      3.65426744     -3.47218867     -4.51841592
    C     -0.39875213     -1.40134257     -0.16533646
    H     -1.83106665     -4.25947810     -0.49366770
    C     -1.44784000     -2.28057764      0.24316489
    C     -0.26649197     -0.13892975      0.43799605
    C     -2.37131848     -1.93382243      1.23930912
    H      0.53784622      0.53183244      0.12458233
    C     -1.14688702      0.21297537      1.47830242
    H     -3.17224274     -2.61013156      1.55083167
    C     -2.22287979     -0.67162078      1.82276172
    C     -0.96687270      1.49120356      2.21716136
    H     -2.95472768     -0.34627164      2.56824184
    C     -1.16087660      1.54121693      3.62807070
    C     -0.59994534      2.66145809      1.51988549
    H     -1.44369477      0.62034664      4.14652782
    C     -0.95146364      2.70571121      4.37234435
    H     -0.48781113      2.64392905      0.43169450
    C     -0.39306927      3.82226058      2.27093667
    H     -1.10437039      2.72446286      5.45420243
    C     -0.53328891      3.86300395      3.69191184
    N     -0.03641894      5.11836464      1.92150744
    N     -0.21128087      5.12594809      4.18094449
    H      0.14687444      5.45987101      0.98263474
    C      0.02600548      5.86369567      3.09317029
    C      0.32804607      7.32716873      3.08595356
    H      0.32099582      7.68936476      4.12280231
    H     -0.42443897      7.89439691      2.50995055
    H      1.32024685      7.53439146      2.64805363
    O      0.44616518      6.01153765     -0.62910947
    H      1.26110865      5.92699038     -1.13350900
    H     -0.21459759      6.20642237     -1.28942189
