47
Energy:    -36.25441698
    H     -0.90489622      6.76246783     -4.43682378
    C     -1.26812902      5.77592769     -4.13028425
    C     -0.58803193      5.06828637     -3.13091559
    C     -2.40614189      5.23139062     -4.74037611
    H      0.29875789      5.52160672     -2.67573819
    C     -1.04791276      3.79589627     -2.73097929
    H     -2.92634493      5.79583461     -5.52116660
    C     -2.88566521      3.95952407     -4.35714008
    C     -0.37892627      3.00828107     -1.68979277
    C     -2.19613754      3.25853601     -3.35392458
    C     -4.11483927      3.37451459     -5.01480947
    N     -0.72053429      1.77121045     -1.33570488
    N      0.70171359      3.48554328     -0.95319228
    H     -2.53972785      2.27147232     -3.03068479
    H     -5.00657269      3.99548121     -4.81409582
    H     -3.99479438      3.32556145     -6.11087690
    H     -4.32118593      2.35799168     -4.64745239
    C      0.16504291      1.41950513     -0.32800038
    H      1.11440064      4.41053824     -1.02132991
    C      1.07616204      2.48839635     -0.06752680
    C      0.25625897      0.22501777      0.40689321
    C      2.07872571      2.39788470      0.90819280
    H     -0.44283576     -0.59123739      0.20663319
    C      1.21874304      0.12764924      1.42929909
    H      2.77350538      3.21885843      1.10619111
    C      2.15321592      1.19895961      1.62417732
    C      1.27030500     -1.07493991      2.30297277
    H      2.95412032      1.07279777      2.35890811
    C      1.52134413     -0.94071138      3.69931300
    C      1.06773553     -2.35649031      1.74896989
    H      1.67380033      0.06353940      4.10554381
    C      1.52611192     -2.03551455      4.56835114
    H      0.91444221     -2.47493624      0.67216317
    C      1.07467116     -3.44654070      2.62422988
    H      1.71959838     -1.91270661      5.63682210
    C      1.27154230     -3.31035926      4.03248709
    N      0.91488803     -4.81225056      2.42803633
    N      1.17142237     -4.54690862      4.66398664
    H      0.75362179     -5.27798203      1.53989648
    C      1.01407723     -5.42630128      3.67114221
    C      0.94718394     -6.91076446      3.82902934
    H      1.04940470     -7.15253932      4.89551273
    H      1.75827529     -7.41518968      3.27455028
    H     -0.01513930     -7.31411081      3.46791204
    O      0.49165865     -6.04124056      0.01003777
    H      1.16102246     -6.19389475     -0.66401623
    H     -0.33393662     -6.14805442     -0.45642043
