47
Energy:    -36.25104241
    H     -6.24383456      3.92193936     -3.44492512
    C     -5.67207480      3.00017934     -3.29454146
    C     -4.60527836      2.98826526     -2.38689098
    C     -6.01120302      1.84456268     -4.01102467
    H     -4.36549364      3.90876235     -1.84442403
    C     -3.86208782      1.80564812     -2.18814357
    H     -6.84677464      1.86967564     -4.71815365
    C     -5.28217262      0.64875516     -3.82932145
    C     -2.73597514      1.73146650     -1.25095772
    C     -4.21434652      0.64786133     -2.91662182
    C     -5.65079685     -0.59765656     -4.60146651
    N     -1.95123596      0.66829627     -1.08887293
    N     -2.36815900      2.78674790     -0.42075626
    H     -3.62842663     -0.26070831     -2.74919396
    H     -6.66862854     -0.94005127     -4.34096985
    H     -5.64118172     -0.40970456     -5.68901080
    H     -4.95266366     -1.42162623     -4.39043797
    C     -1.03338768      1.03385427     -0.11556215
    H     -2.83891996      3.68276865     -0.34265418
    C     -1.27617631      2.37131387      0.32349194
    C      0.02242973      0.29293778      0.44254301
    C     -0.49217344      2.99167943      1.30626408
    H      0.20564727     -0.73085979      0.10582371
    C      0.79129814      0.87243055      1.46928518
    H     -0.68195451      4.01523172      1.64129222
    C      0.55494900      2.23707830      1.84451657
    C      1.84186596      0.07981635      2.16228952
    H      1.21899291      2.70482342      2.57762923
    C      2.02422206      0.20089007      3.57044129
    C      2.66217667     -0.79900715      1.42399108
    H      1.37489166      0.88778168      4.12120070
    C      2.96139171     -0.56205633      4.27291538
    H      2.55817595     -0.86990824      0.33716180
    C      3.59757423     -1.55805453      2.13336861
    H      3.08614290     -0.45604710      5.35335427
    C      3.74593045     -1.47959042      3.55193332
    N      4.54357598     -2.49513555      1.73821567
    N      4.70611118     -2.38448713      3.99587579
    H      4.72280077     -2.80566413      0.78787074
    C      5.20006880     -2.93273006      2.88265319
    C      6.32942863     -3.90950203      2.82351875
    H      6.68130135     -4.09744120      3.84682490
    H      7.17325126     -3.51920296      2.22737196
    H      6.01271224     -4.86930456      2.37896300
    O      5.00778258     -3.30846951     -0.84234486
    H      4.52084585     -3.97019279     -1.34305928
    H      5.47937809     -2.81536559     -1.50946269
