47
Energy:    -36.24365853
    H     -7.98662876      1.50911364      0.41433546
    C     -6.96664220      1.85653259      0.21915996
    C     -5.90654567      0.94149674      0.24966802
    C     -6.73197116      3.21022686     -0.05696922
    H     -6.12406408     -0.10880993      0.47017569
    C     -4.58903222      1.38059805      0.00114366
    H     -7.57061224      3.91390613     -0.07590667
    C     -5.42196543      3.67375950     -0.30892057
    C     -3.43914014      0.46987647      0.01800820
    C     -4.36625849      2.74765613     -0.27591421
    C     -5.17086566      5.13411206     -0.60884272
    N     -2.17010009      0.84579856     -0.12565093
    N     -3.56272996     -0.90617370      0.18933672
    H     -3.33876421      3.07064375     -0.46766272
    H     -5.67665565      5.44080862     -1.54221709
    H     -5.56103616      5.77897391      0.19743959
    H     -4.09621197      5.34135262     -0.72294712
    C     -1.42917455     -0.32400472     -0.04818080
    H     -4.43026227     -1.42509835      0.28247058
    C     -2.28826323     -1.44766905      0.15146416
    C     -0.03920512     -0.51088609     -0.13900663
    C     -1.79738155     -2.75601716      0.26378255
    H      0.61623461      0.35039405     -0.29297187
    C      0.47584359     -1.81963912     -0.08368641
    H     -2.45812971     -3.61421710      0.41486109
    C     -0.41119842     -2.91758683      0.17436460
    C      1.92787051     -2.06684883     -0.29030238
    H      0.01247494     -3.91759886      0.30729627
    C      2.36655450     -3.19167137     -1.04735893
    C      2.87798614     -1.18311350      0.26342785
    H      1.61077647     -3.86162717     -1.46776919
    C      3.71704603     -3.43528879     -1.31319194
    H      2.55412907     -0.33936851      0.88007361
    C      4.22664292     -1.43371179     -0.00613359
    H      4.03432555     -4.30294998     -1.89684147
    C      4.66728405     -2.52907863     -0.81018515
    N      5.39745938     -0.78788910      0.36974918
    N      6.05100934     -2.50255932     -0.96008859
    H      5.46710887      0.04187714      0.95142085
    C      6.45819659     -1.48419037     -0.19788637
    C      7.88087262     -1.09851858      0.04764203
    H      8.52990592     -1.79267783     -0.50298462
    H      8.13718433     -1.15315823      1.12052590
    H      8.08869755     -0.07165442     -0.30095344
    O      5.55170017      1.44853067      1.95432871
    H      5.43529064      1.46599205      2.90923390
    H      5.44824510      2.36035777      1.69266407
