47
Energy:    -36.17622115
    H     -3.19244228      5.09138190      5.48905046
    C     -2.31770402      4.59944985      5.05087032
    C     -2.47398805      3.79147903      3.91738699
    C     -1.05361691      4.78114395      5.62782529
    H     -3.47570245      3.66914343      3.49231728
    C     -1.35281811      3.15244909      3.34726885
    H     -0.94739753      5.41450869      6.51462209
    C      0.08362081      4.15195614      5.07531280
    C     -1.45356573      2.29600760      2.16054736
    C     -0.08438602      3.34394565      3.93857767
    C      1.44696446      4.35084332      5.69770494
    N     -0.44468524      1.60447677      1.63484472
    N     -2.63815325      2.11737411      1.45133337
    H      0.77428445      2.84217146      3.48279189
    H      1.75691516      5.41022380      5.64557461
    H      1.44294443      4.06709864      6.76430880
    H      2.21320969      3.74894451      5.18639772
    C     -0.98173920      0.94697429      0.53817908
    H     -3.52720523      2.56878332      1.64208267
    C     -2.36975478      1.25527221      0.40078133
    C     -0.36084343      0.08244656     -0.37957320
    C     -3.15750816      0.72295437     -0.62947948
    H      0.70180019     -0.15115670     -0.27313989
    C     -1.11540120     -0.42323289     -1.45479452
    H     -4.21952564      0.96250170     -0.73270718
    C     -2.51967395     -0.13770665     -1.52838666
    C     -0.46596074     -1.24788029     -2.50853488
    H     -3.11344765     -0.61163690     -2.31579819
    C     -0.82307193     -1.07885123     -3.87773347
    C      0.51082743     -2.20183012     -2.15330316
    H     -1.58201886     -0.33184069     -4.12825452
    C     -0.20269352     -1.79212073     -4.90740393
    H      0.76365165     -2.36847419     -1.10194657
    C      1.12623790     -2.91177696     -3.18847630
    H     -0.48938671     -1.64809046     -5.95201452
    C      0.80992645     -2.70610632     -4.56620583
    N      2.10125874     -3.90089150     -3.20162118
    N      1.61301862     -3.50193111     -5.37834858
    H      2.56314362     -4.30163632     -2.39059038
    C      2.33152713     -4.24150544     -4.52946440
    C      3.28676731     -5.32389286     -4.91545361
    H      3.29586094     -5.40614963     -6.01064406
    H      2.98829291     -6.29918200     -4.49179677
    H      4.31209610     -5.10174900     -4.57119647
    O      3.30931000     -4.98396226     -0.98644582
    H      2.97924606     -5.72676472     -0.47166207
    H      3.95178653     -4.57316140     -0.41280258
