47
Energy:    -36.12219270
    H      5.80613844     -4.56696534     -1.29183877
    C      5.47261602     -3.58239207     -0.94753618
    C      4.10343884     -3.28873421     -0.91369960
    C      6.41650705     -2.62733933     -0.54659983
    H      3.39232550     -4.05681041     -1.23534965
    C      3.66486014     -2.02222777     -0.47321558
    H      7.48344746     -2.87098989     -0.57998504
    C      6.00200776     -1.35263876     -0.10186866
    C      2.24529071     -1.65709288     -0.41448609
    C      4.62659718     -1.06870430     -0.07185307
    C      7.02154230     -0.32425288      0.33241904
    N      1.78375627     -0.45166642     -0.08837109
    N      1.21837907     -2.55279712     -0.69963239
    H      4.26899534     -0.09232516      0.26820238
    H      7.58600151     -0.67281318      1.21614157
    H      7.75817136     -0.13177966     -0.46664459
    H      6.54188796      0.63119158      0.59300799
    C      0.40257367     -0.55541745     -0.15895688
    H      1.32485913     -3.53415046     -0.93664848
    C      0.01946490     -1.87645585     -0.54444129
    C     -0.58191811      0.41649213      0.08874593
    C     -1.32235825     -2.25532832     -0.69045937
    H     -0.28641972      1.42652193      0.38477041
    C     -1.93768955      0.04832854      0.00208917
    H     -1.61215516     -3.26811563     -0.98405708
    C     -2.28438649     -1.27107416     -0.44277119
    C     -3.00582561      1.01664725      0.36764249
    H     -3.33993101     -1.51571165     -0.59499553
    C     -4.15562312      0.58253705      1.08897321
    C     -2.88126643      2.37332402      0.00125722
    H     -4.22866964     -0.47404911      1.36297300
    C     -5.15880667      1.46447076      1.50087091
    H     -2.02271166      2.71000582     -0.58744480
    C     -3.88885804      3.24910636      0.41610952
    H     -6.03302938      1.11300046      2.05436191
    C     -5.01555691      2.82745814      1.18633965
    N     -4.08421207      4.61235344      0.23560964
    N     -5.82496890      3.91360071      1.50730153
    H     -3.47314383      5.24613980     -0.27096263
    C     -5.26945993      4.95211990      0.87744705
    C     -5.82200799      6.33998610      0.83805109
    H     -6.75797281      6.35865843      1.41243092
    H     -6.03731674      6.66227071     -0.19613254
    H     -5.12169810      7.06816596      1.28356222
    O      1.13611126     -5.27810456     -1.24082370
    H      0.97374404     -5.89213675     -0.51811950
    H      0.89727020     -5.77230574     -2.02141331
