47
Energy:    -36.10581674
    H     -3.66766211      6.10855516     -2.33888268
    C     -3.73846754      5.11084647     -1.89309129
    C     -2.57066334      4.37427748     -1.65702885
    C     -4.99374389      4.58106963     -1.56533562
    H     -1.60588326      4.81673904     -1.92630410
    C     -2.65260075      3.08737451     -1.08468017
    H     -5.89783353      5.16816094     -1.75713690
    C     -5.10140935      3.29514048     -0.99153132
    C     -1.46556136      2.26946079     -0.81282608
    C     -3.92399491      2.56514064     -0.75900293
    C     -6.45628901      2.72602977     -0.63649878
    N     -1.49270282      1.01991179     -0.35423190
    N     -0.16599408      2.72760839     -1.01123893
    H     -3.96907229      1.56645813     -0.31466716
    H     -6.95243182      3.33589645      0.14001841
    H     -7.12524959      2.71335688     -1.51428129
    H     -6.37208133      1.69711857     -0.25557908
    C     -0.16349079      0.63978923     -0.24416728
    H      0.10370170      3.65627815     -1.32011700
    C      0.69649463      1.70394273     -0.65467356
    C      0.38614303     -0.57754463      0.19308541
    C      2.09341190      1.58646860     -0.64137055
    H     -0.27391913     -1.39015364      0.50787827
    C      1.78604568     -0.70358197      0.26763186
    H      2.74887880      2.40384679     -0.95470108
    C      2.61781544      0.36523569     -0.20640490
    C      2.40238804     -1.93371955      0.83249347
    H      3.70191703      0.21902010     -0.22961595
    C      3.54871982     -1.84383344      1.67430577
    C      1.84962196     -3.19750033      0.53646509
    H      3.95810994     -0.85262884      1.89040569
    C      4.13000717     -2.96631439      2.27095099
    H      0.99453185     -3.28155179     -0.14088065
    C      2.43685646     -4.31542335      1.13624985
    H      5.00856439     -2.87744127      2.91468058
    C      3.55218101     -4.22423027      2.02407132
    N      2.15997244     -5.67476423      1.06759419
    N      3.89113982     -5.48114463      2.51716686
    H      1.42246871     -6.11209343      0.52304261
    C      3.07649258     -6.32848363      1.88297801
    C      3.10857281     -7.81760072      2.00353977
    H      3.91269733     -8.09348116      2.69892796
    H      3.30480197     -8.29985409      1.02953422
    H      2.15479927     -8.21353586      2.39432283
    O      0.92358939      5.18680171     -1.71325159
    H      1.40269351      5.47387708     -2.49667164
    H      1.21643423      5.78647598     -1.03117193
