47
Energy:    -36.00099931
    H     -0.97618515      6.62613689     -4.62886619
    C     -1.34657452      5.66013994     -4.26994058
    C     -0.63528812      4.97149960     -3.27904596
    C     -2.52485520      5.12260702     -4.80521528
    H      0.28256335      5.41862653     -2.88318210
    C     -1.10419026      3.72555476     -2.81196113
    H     -3.06917801      5.67192217     -5.58033304
    C     -3.01416682      3.87708136     -4.35388727
    C     -0.40380086      2.95875120     -1.77590274
    C     -2.29312576      3.19499193     -3.35984110
    C     -4.28670007      3.29967958     -4.93086242
    N     -0.75600950      1.74358910     -1.36147766
    N      0.72176835      3.43490937     -1.10918740
    H     -2.64310566      2.22857579     -2.98515866
    H     -5.15330623      3.94896058     -4.71063085
    H     -4.22090636      3.20942393     -6.02890436
    H     -4.49817203      2.30201427     -4.51759187
    C      0.16897980      1.40581667     -0.38489352
    H      1.15165843      4.34655923     -1.23025789
    C      1.11574916      2.46053305     -0.20680892
    C      0.26834888      0.23593715      0.38756794
    C      2.16196610      2.37972828      0.72284463
    H     -0.45803053     -0.56945936      0.25038410
    C      1.27664312      0.15089968      1.36597550
    H      2.88403488      3.18986553      0.85780498
    C      2.24361835      1.20516234      1.47738539
    C      1.34293615     -1.02123979      2.27914541
    H      3.07600642      1.08523686      2.17734394
    C      1.66414996     -0.84435758      3.65622143
    C      1.08467309     -2.31606699      1.78210645
    H      1.85890977      0.16947357      4.01816206
    C      1.68594862     -1.90782551      4.56308679
    H      0.87686564     -2.46837963      0.71878245
    C      1.10904547     -3.37462159      2.69490771
    H      1.93358842     -1.75243175      5.61602377
    C      1.37678902     -3.19404346      4.08638065
    N      0.90887919     -4.74204209      2.55605303
    N      1.27914043     -4.40488129      4.76623836
    H      0.69431065     -5.23451650      1.69400065
    C      1.05399860     -5.31440349      3.81444557
    C      0.96099231     -6.79033781      4.02892569
    H      1.10909016     -6.99702688      5.09740014
    H      1.73263357     -7.33360394      3.45517254
    H     -0.02660039     -7.18238987      3.72873271
    O      0.45802263     -6.09765600      0.18812340
    H      1.21750948     -6.18637974     -0.39583535
    H     -0.28862452     -6.29201310     -0.37343100
