47
Energy:    -36.25439350
    H     -1.46413108      6.96231578     -3.95192823
    C     -1.73325399      5.92367560     -3.73291812
    C     -1.01322362      5.21197675     -2.76489590
    C     -2.79177328      5.31736341     -4.42264882
    H     -0.19076364      5.71477262     -2.24543667
    C     -1.35190548      3.87289290     -2.47755457
    H     -3.34442134      5.88599614     -5.17768454
    C     -3.14956331      3.97813608     -4.15262388
    C     -0.63594478      3.07750833     -1.47420335
    C     -2.42094534      3.27367907     -3.17993165
    C     -4.29323457      3.32627729     -4.89608214
    N     -0.85932139      1.78881235     -1.22564036
    N      0.36878719      3.60154729     -0.66547667
    H     -2.67096009      2.23518236     -2.94360515
    H     -5.24912240      3.83777168     -4.68224589
    H     -4.13756235      3.37473659     -5.98768136
    H     -4.40502994      2.26881973     -4.61300213
    C      0.02841824      1.45003997     -0.21541087
    H      0.68656594      4.56556813     -0.64968141
    C      0.81772595      2.58100743      0.15663608
    C      0.22019544      0.21719728      0.43151217
    C      1.79601391      2.51548285      1.15864117
    H     -0.38582110     -0.64668864      0.14593369
    C      1.15799744      0.13725152      1.47808088
    H      2.39732215      3.38379475      1.44215985
    C      1.97215319      1.27803740      1.78578366
    C      1.30720889     -1.11835089      2.26126893
    H      2.76044570      1.17573903      2.53766394
    C      1.50323621     -1.06851450      3.67190483
    C      1.25256541     -2.36684215      1.60658682
    H      1.54060658     -0.08863122      4.15689783
    C      1.59503547     -2.22150126      4.45678599
    H      1.14299378     -2.41606976      0.51910730
    C      1.34585690     -3.51538083      2.39810031
    H      1.74436565     -2.16329184      5.53773981
    C      1.48748210     -3.46993337      3.81879339
    N      1.33213976     -4.87085482      2.09529990
    N      1.49625451     -4.75555756      4.35261310
    H      1.24474097     -5.28001937      1.16974556
    C      1.45801669     -5.56655248      3.29211599
    C      1.53868818     -7.05804030      3.33672747
    H      1.63458108     -7.37043831      4.38529938
    H      2.41258305     -7.43451820      2.77607325
    H      0.63332812     -7.52609328      2.91198100
    O      1.10596443     -5.94459343     -0.42108444
    H      1.80642286     -5.97701846     -1.07987621
    H      0.30928191     -6.09669164     -0.92383995
