47
Energy:    -36.25433592
    H      2.47001555      6.84803671     -3.63849653
    C      1.69043058      6.10063505     -3.45737772
    C      1.91799836      5.07412499     -2.53189623
    C      0.47614831      6.17709401     -4.15270398
    H      2.87837444      5.04229959     -2.00678011
    C      0.91990437      4.10592126     -2.29355632
    H      0.31341002      6.98446905     -4.87416346
    C     -0.53811508      5.21963747     -3.93133607
    C      1.09948262      3.00909683     -1.33612338
    C     -0.29946015      4.19451623     -3.00104350
    C     -1.84838299      5.30490548     -4.68071007
    N      0.22614822      2.02428868     -1.13647888
    N      2.22377345      2.88615709     -0.52433650
    H     -1.06287574      3.43636738     -2.80295270
    H     -2.39006540      6.23472971     -4.42955064
    H     -1.68323295      5.31146337     -5.77197239
    H     -2.50488835      4.45551033     -4.43909550
    C      0.79310967      1.22323089     -0.15654360
    H      3.00354261      3.53428714     -0.47477346
    C      2.05886576      1.74774662      0.24750808
    C      0.29884342      0.04864405      0.43610775
    C      2.84733922      1.13070405      1.22879452
    H     -0.67062630     -0.35030114      0.12613810
    C      1.04503213     -0.56115309      1.46203166
    H      3.81517122      1.53598134      1.53696905
    C      2.33750411     -0.03864259      1.80176973
    C      0.50167890     -1.73848061      2.19062769
    H      2.94702323     -0.57536183      2.53499064
    C      0.68476803     -1.86180024      3.59848942
    C     -0.20107563     -2.73889347      1.48661407
    H      1.23184351     -1.07243932      4.12232504
    C      0.14701145     -2.92186581      4.33396398
    H     -0.31269287     -2.67496612      0.40010780
    C     -0.73525689     -3.79626980      2.22886987
    H      0.29715832     -2.99893080      5.41362407
    C     -0.60071386     -3.89496686      3.64754850
    N     -1.46231213     -4.92442330      1.87131375
    N     -1.27740917     -5.01250137      4.12824600
    H     -1.74674135     -5.18435113      0.93150391
    C     -1.73190865     -5.63305121      3.03637736
    C     -2.45324372     -6.94163713      3.01869684
    H     -2.54438201     -7.30307837      4.05182077
    H     -1.90729700     -7.69845840      2.42799833
    H     -3.46620628     -6.84066079      2.59106308
    O     -2.20542743     -5.60436339     -0.68245197
    H     -1.62384302     -5.97354250     -1.35414116
    H     -2.95842050     -5.28970804     -1.17701585
