47
Energy:    -36.25424859
    H      0.66147397     -7.39215345     -3.33971596
    C      1.05774174     -6.38235565     -3.18989523
    C      0.40690564     -5.50729268     -2.31085987
    C      2.20842661     -5.97558885     -3.87856868
    H     -0.49080825     -5.85601780     -1.78972403
    C      0.90942762     -4.20392163     -2.11309342
    H      2.70540792     -6.67033190     -4.56353852
    C      2.73045554     -4.67594785     -3.69725111
    C      0.27250012     -3.24378718     -1.20512029
    C      2.07000821     -3.80655634     -2.81337232
    C      3.97322546     -4.23950552     -4.43932591
    N      0.65539459     -1.97855555     -1.04701040
    N     -0.81788862     -3.56643736     -0.40194457
    H      2.44676904     -2.79302849     -2.64710271
    H      4.84614253     -4.85048617     -4.14642246
    H      3.84765850     -4.35655249     -5.52960291
    H      4.21403404     -3.18564411     -4.23381106
    C     -0.21202737     -1.44705068     -0.10441095
    H     -1.26008479     -4.47704863     -0.32566440
    C     -1.15481141     -2.43291984      0.31953867
    C     -0.26060019     -0.15109037      0.43717611
    C     -2.14763513     -2.16050052      1.27108676
    H      0.46266481      0.60144953      0.11208927
    C     -1.21284431      0.13401576      1.43372798
    H     -2.86675142     -2.91818846      1.59466170
    C     -2.17947344     -0.86361804      1.79328036
    C     -1.22062393      1.45812770      2.11111416
    H     -2.97118333     -0.59971992      2.50091532
    C     -1.46669209      1.54931639      3.51180652
    C     -0.98119823      2.63153681      1.36538539
    H     -1.64821451      0.62529652      4.06860350
    C     -1.43114419      2.76476577      4.20119985
    H     -0.83124456      2.57726306      0.28297638
    C     -0.94792699      3.84332372      2.06166371
    H     -1.62146234      2.81474235      5.27610931
    C     -1.13983969      3.93267566      3.47434830
    N     -0.74627214      5.15647489      1.65650287
    N     -0.99651797      5.24802787      3.90698839
    H     -0.57612817      5.47401539      0.70680604
    C     -0.81787994      5.95800654      2.78991733
    C     -0.70300247      7.44610200      2.71637100
    H     -0.79057447      7.85284252      3.73282773
    H     -1.50131147      7.88476664      2.09184151
    H      0.26923567      7.75756606      2.29577246
    O     -0.30009348      5.98299271     -0.92304170
    H     -0.96865701      6.05121956     -1.61156758
    H      0.52541988      5.98977203     -1.40166655
