51
Energy:    -64.83208785
    H     -1.16539196      4.86381356     -5.68249333
    C     -0.88294382      3.83924726     -5.42375223
    C     -0.78919321      3.47012726     -4.07763290
    C     -0.61933768      2.91003450     -6.43925823
    H     -1.03889439      4.19452038     -3.29716002
    C     -0.42447884      2.14557388     -3.74350602
    H     -0.69909370      3.21670256     -7.48724520
    C     -0.25094180      1.58155903     -6.13072556
    C     -0.32091391      1.74419936     -2.35211722
    C     -0.16463274      1.21485204     -4.77862285
    C      0.04067712      0.59176807     -7.23403569
    N     -0.46070015      0.48300052     -1.85857158
    N     -0.06592481      2.55320403     -1.29094946
    H      0.15317798      0.19661857     -4.52959686
    H      0.86367224      0.94790117     -7.87648278
    H     -0.84062162      0.45376075     -7.88219887
    H      0.32678235     -0.39217767     -6.83236595
    H     -0.74223056     -0.31259585     -2.42768672
    C     -0.30856429      0.47659647     -0.46946047
    H      0.16512717      3.54024085     -1.37357083
    C     -0.05068764      1.82043216     -0.10122377
    C     -0.36983100     -0.53935983      0.48478331
    C      0.15950086      2.18595361      1.22697496
    H     -0.56967694     -1.57823542      0.20428359
    C     -0.16620414     -0.19968526      1.84131723
    H      0.40307118      3.20258515      1.55444681
    C      0.05166359      1.18471719      2.19875465
    C     -0.19216782     -1.32555285      2.81443442
    S      0.21549302      1.80533459      3.94301694
    C     -1.02066191     -1.28528740      3.97039777
    C      0.57077623     -2.47557412      2.51652597
    O     -1.20916420      1.77231978      4.42385251
    O      1.14056944      0.82137165      4.58468006
    O      0.76891840      3.18696015      3.74838611
    H     -1.56552593     -0.36367748      4.19042580
    C     -1.10427205     -2.36927193      4.84456702
    H      1.24188886     -2.49332501      1.65095232
    C      0.49180294     -3.54407241      3.41344772
    H     -1.74326934     -2.32809017      5.73093970
    C     -0.34655643     -3.52188723      4.56443311
    N      1.11320707     -4.78653107      3.46380034
    N     -0.26010824     -4.72823283      5.25371609
    H      1.81357335     -5.13738094      2.81757868
    C      0.66236678     -5.42896044      4.61085245
    C      1.19032822     -6.76038598      5.03312222
    H      0.68284990     -7.05845415      5.96133077
    H      2.27748495     -6.72451973      5.22424744
    H      1.00540332     -7.53531599      4.26679836
    O      0.53514041      5.17422902     -1.26037636
    H      0.10823581      5.73228116     -0.60308626
    H      1.39027796      5.57866905     -1.38594720
