51
Energy:    -62.76243278
    H      0.78395768     -1.48529446      7.37084361
    C      1.04396699     -0.79442825      6.56365153
    C      0.60862988     -1.06221865      5.26140505
    C      1.80714172      0.34786245      6.84098400
    H     -0.02155089     -1.93499210      5.06808483
    C      0.94453267     -0.16878840      4.21830836
    H      2.13782773      0.54174047      7.86652829
    C      2.15745795      1.25418074      5.81549842
    C      0.50275281     -0.43048280      2.86031845
    C      1.71264751      0.98403934      4.51193703
    C      2.98915332      2.47668203      6.12500513
    N      0.30999565      0.49183054      1.87749966
    N      0.20181293     -1.64186641      2.32406298
    H      2.00791829      1.66300482      3.70469602
    H      3.96019098      2.19255580      6.56460513
    H      2.47895853      3.12504528      6.85656194
    H      3.18846400      3.07229394      5.22119890
    H      0.38058555      1.49568697      2.03051715
    C     -0.13051323     -0.12321559      0.70255874
    H      0.33600171     -2.52551539      2.80946061
    C     -0.19918667     -1.50865218      0.99211430
    C     -0.47128907      0.37392383     -0.55570444
    C     -0.60291005     -2.43573508      0.03324948
    H     -0.42037950      1.44337642     -0.78277356
    C     -0.88988719     -0.54071064     -1.54830023
    H     -0.63147193     -3.51845724      0.19756910
    C     -0.99463830     -1.94473250     -1.21732017
    C     -1.19455564      0.03274021     -2.88753145
    S     -1.64157459     -3.24998427     -2.37155077
    C     -2.42808318     -0.23538326     -3.54388092
    C     -0.25527744      0.91984448     -3.45690344
    O     -3.12387563     -2.99874366     -2.33151623
    O     -0.96556711     -2.94306853     -3.66943274
    O     -1.21327942     -4.52230572     -1.70012589
    H     -3.11295765     -0.95825733     -3.09326576
    C     -2.74818095      0.36009313     -4.76418018
    H      0.71280430      1.09490949     -2.97514106
    C     -0.58237217      1.49119395     -4.68936553
    H     -3.69852321      0.14673337     -5.26116832
    C     -1.82073780      1.24361488     -5.34759129
    N      0.09431867      2.35549796     -5.54227239
    N     -1.89688822      1.97061254     -6.53229781
    H      1.03414383      2.71768364     -5.41280736
    C     -0.71947526      2.56671158     -6.64899243
    C     -0.27220034      3.38118021     -7.81789576
    H     -1.08390326      3.40348258     -8.55856503
    H      0.62536239      2.94908074     -8.29475655
    H     -0.03457529      4.42033441     -7.52522039
    O      0.36472580     -4.11149993      3.49726049
    H      0.89037220     -4.57510227      4.15640291
    H     -0.11986911     -4.80650114      3.05823759
