51
Energy:    -62.43224530
    H     -4.28278849     -0.80660502      6.19006258
    C     -3.27425326     -0.90624572      5.77849433
    C     -3.05050619     -0.61903296      4.42774562
    C     -2.22032976     -1.31849373      6.60521909
    H     -3.87434901     -0.25794472      3.80554605
    C     -1.74667040     -0.74752500      3.89614332
    H     -2.41417373     -1.53759839      7.66025495
    C     -0.90948042     -1.45656149      6.09692163
    C     -1.49521878     -0.45499103      2.49650552
    C     -0.68937177     -1.16093458      4.74257238
    C      0.21639731     -1.91154049      6.99548408
    N     -0.31143316     -0.06456300      1.94881259
    N     -2.39440654     -0.51766074      1.48008096
    H      0.31674274     -1.29770616      4.33166591
    H     -0.00057271     -2.90229724      7.42932170
    H      0.35583948     -1.21236174      7.83664634
    H      1.16912251     -1.98296029      6.44907955
    H      0.51781001      0.14611292      2.50026196
    C     -0.44722340      0.13942450      0.57303422
    H     -3.34498782     -0.86382681      1.58504417
    C     -1.79919667     -0.15630661      0.26856027
    C      0.44865823      0.54467479     -0.41674874
    C     -2.29214963     -0.06234286     -1.03146481
    H      1.49332351      0.77481652     -0.18525310
    C     -0.02234551      0.65478372     -1.74455087
    H     -3.31655505     -0.32040641     -1.32146608
    C     -1.41645196      0.39059262     -2.02467276
    C      0.98310569      1.04229493     -2.77125041
    S     -2.21192256      0.60726485     -3.69042685
    C      0.74996418      2.12622549     -3.66288631
    C      2.21539116      0.35331524     -2.78395855
    O     -2.34437596      2.10248564     -3.78376439
    O     -1.23564358     -0.01852041     -4.63432999
    O     -3.51570411     -0.11846963     -3.52759826
    H     -0.23027193      2.60962430     -3.65208093
    C      1.72037089      2.53991857     -4.57576848
    H      2.38166392     -0.50843942     -2.12847608
    C      3.16829559      0.76665772     -3.71857887
    H      1.53109851      3.37356303     -5.25759168
    C      2.95284442      1.86071483     -4.60442640
    N      4.44242260      0.31118335     -4.03720947
    N      4.07833319      2.07701994     -5.39457899
    H      4.91667108     -0.48871732     -3.62921647
    C      4.91627628      1.10079610     -5.07820678
    C      6.22995803      0.83814330     -5.73775418
    H      6.38247229      1.59120187     -6.52362452
    H      6.25856198     -0.16349079     -6.20212038
    H      7.06818352      0.90406733     -5.02012054
    O     -4.89015430     -1.50828574      1.48106832
    H     -5.02548413     -2.02879875      0.68328888
    H     -5.75748629     -1.46225453      1.87631046
