51
Energy:    -62.34283770
    H     -6.10988080      4.41999723     -0.65923176
    C     -5.75273822      3.38781888     -0.59992726
    C     -4.37903820      3.13878110     -0.51045969
    C     -6.67118857      2.32931067     -0.61357767
    H     -3.67749355      3.97625013     -0.45835669
    C     -3.91772893      1.80448195     -0.43339772
    H     -7.74263873      2.54354124     -0.68273558
    C     -6.23474668      0.98771976     -0.54004323
    C     -2.49580745      1.52623892     -0.34114741
    C     -4.85584392      0.74379409     -0.44395767
    C     -7.23373260     -0.14514332     -0.56591555
    N     -1.91888315      0.41978889      0.20353294
    N     -1.48365645      2.31842769     -0.78111594
    H     -4.50618121     -0.29399727     -0.42067463
    H     -7.83776191     -0.11780904     -1.48857010
    H     -7.93395881     -0.07201893      0.28272164
    H     -6.73733172     -1.12616666     -0.51568249
    H     -2.44486443     -0.30437682      0.68835531
    C     -0.52587314      0.50123982      0.12800253
    H     -1.62412518      3.17677561     -1.30833541
    C     -0.24345553      1.73319763     -0.51271055
    C      0.49617609     -0.35207502      0.54486122
    C      1.06483125      2.14398680     -0.76077299
    H      0.28195920     -1.30391250      1.04084261
    C      1.83412254      0.03890676      0.31235418
    H      1.33074960      3.06603005     -1.28919297
    C      2.09967574      1.32038958     -0.30334160
    C      2.88602983     -0.92750143      0.73039156
    S      3.79854518      2.02710367     -0.56574362
    C      3.96976584     -0.52788089      1.56111095
    C      2.73558678     -2.27734571      0.34481497
    O      4.17176708      2.47248573      0.82144102
    O      4.58169979      0.87605157     -1.11111406
    O      3.54073194      3.15150411     -1.52611126
    H      4.07674070      0.53195743      1.80596419
    C      4.91574123     -1.44665740      2.01626509
    H      1.92696876     -2.58015125     -0.32925527
    C      3.70334382     -3.18064966      0.79189695
    H      5.74565985     -1.12933545      2.65361261
    C      4.78277468     -2.79567384      1.63731320
    N      3.89556881     -4.54192448      0.58607562
    N      5.56714035     -3.89965117      1.95958411
    H      3.33279456     -5.14840013     -0.00272267
    C      5.05128918     -4.90474157      1.26752641
    C      5.61305925     -6.28641553      1.19582933
    H      6.52051354     -6.32655793      1.81459042
    H      5.88224881     -6.56253566      0.16092853
    H      4.89670722     -7.03912425      1.57297034
    O     -1.57923092      4.58005530     -2.23484639
    H     -1.97919330      5.45144641     -2.31489395
    H     -0.81683824      4.62276488     -2.80715164
