51
Energy:    -60.55082288
    H      1.83088950     -6.80328243     -2.77119386
    C      1.00488106     -6.16038817     -2.45361390
    C      1.28089198     -4.89090941     -1.93465565
    C     -0.31649370     -6.61277596     -2.56976476
    H      2.31428322     -4.53552542     -1.88950307
    C      0.21294530     -4.05996984     -1.52462112
    H     -0.51331575     -7.60878519     -2.97953262
    C     -1.40023445     -5.80205515     -2.16480458
    C      0.47972833     -2.73981368     -0.98258373
    C     -1.11798191     -4.52680634     -1.65082114
    C     -2.81967112     -6.30472202     -2.28541363
    N     -0.36461812     -1.67178019     -0.99413954
    N      1.61905124     -2.33075943     -0.36597775
    H     -1.94963277     -3.90463988     -1.30285169
    H     -2.95964855     -7.23427505     -1.70815502
    H     -3.06832953     -6.53386466     -3.33494288
    H     -3.54580498     -5.56470768     -1.91601902
    H     -1.26257783     -1.67351566     -1.47350407
    C      0.23521379     -0.56151298     -0.39386928
    H      2.39540591     -2.94855591     -0.14225040
    C      1.52246808     -0.98990091      0.01534117
    C     -0.20051472      0.74510555     -0.17162912
    C      2.40674623     -0.12918975      0.66274016
    H     -1.19365112      1.07985972     -0.48706648
    C      0.67548057      1.64376739      0.47803707
    H      3.39369792     -0.42597713      1.03415316
    C      2.00065704      1.19726923      0.84728594
    C      0.14613566      3.01065539      0.73614588
    S      3.30543638      2.28861230      1.59627070
    C      0.86617661      4.17062613      0.33579116
    C     -1.13427101      3.12522518      1.31993910
    O      3.76665551      3.08803129      0.40877451
    O      2.56760767      3.05405313      2.64764605
    O      4.31244342      1.29628852      2.10053289
    H      1.87110263      4.04532957     -0.07540036
    C      0.33899638      5.45066205      0.50834280
    H     -1.67228293      2.23679700      1.66802464
    C     -1.63848182      4.41517384      1.50486583
    H      0.90077645      6.33603028      0.19818760
    C     -0.93455690      5.58262003      1.09296160
    N     -2.81335733      4.90154787      2.06655065
    N     -1.68478503      6.72415390      1.36112607
    H     -3.54629252      4.35085903      2.50331008
    C     -2.76244986      6.28872765      1.99696841
    C     -3.82710395      7.15172881      2.58983406
    H     -3.56605511      8.20344630      2.40627528
    H     -3.91497705      6.99773223      3.67992046
    H     -4.81547970      6.95062646      2.13746559
    O      4.13856636     -3.44501150     -0.18152074
    H      4.65037966     -4.05531995      0.35817431
    H      4.78595084     -2.82088455     -0.50083076
