51
Energy:    -59.73515269
    H      2.79875707     -2.61115089     -6.55365782
    C      1.88325127     -2.40758047     -5.99074734
    C      1.97350257     -1.91639299     -4.68397055
    C      0.63392040     -2.63941413     -6.58201930
    H      2.95460335     -1.70067126     -4.25137443
    C      0.78992442     -1.65296166     -3.95675278
    H      0.58288550     -3.02278499     -7.60627768
    C     -0.56267439     -2.38619535     -5.87505667
    C      0.86351605     -1.14399898     -2.59905942
    C     -0.46639792     -1.88739850     -4.56660815
    C     -1.90332786     -2.64969631     -6.51944515
    N     -0.08496098     -0.40964513     -1.95495870
    N      1.89097924     -1.30787033     -1.72553176
    H     -1.38809272     -1.72020471     -3.99885651
    H     -1.99635701     -3.70734088     -6.81881704
    H     -2.02815084     -2.04213592     -7.43111319
    H     -2.73507544     -2.41695787     -5.83726278
    H     -0.92948304     -0.06599523     -2.40752054
    C      0.33530484     -0.08491685     -0.66238600
    H      2.70463960     -1.88942665     -1.91046979
    C      1.61747826     -0.66947034     -0.51298211
    C     -0.25561605      0.64427695      0.36988863
    C      2.34154656     -0.54826973      0.67147242
    H     -1.24530963      1.09797279      0.25787211
    C      0.45600515      0.78973559      1.58210315
    H      3.31590585     -1.01686543      0.84795485
    C      1.78134151      0.22215255      1.69669376
    C     -0.23732413      1.53347862      2.66900233
    S      2.88779302      0.42926498      3.17565505
    C      0.38912186      2.62280746      3.33623774
    C     -1.57108673      1.17903484      2.96704417
    O      3.36908924      1.84480895      3.01277407
    O      1.97874692      0.18182664      4.33672803
    O      3.94372696     -0.61185500      2.94301217
    H      1.43534513      2.84251113      3.10863903
    C     -0.28491903      3.36957266      4.30277569
    H     -2.04137830      0.31454570      2.48599389
    C     -2.22458542      1.92367664      3.95235734
    H      0.20572429      4.20442738      4.81067009
    C     -1.61382275      3.02645655      4.61489145
    N     -3.49138143      1.84023140      4.51861414
    N     -2.50278618      3.60753541      5.51486110
    H     -4.19877537      1.14100039      4.31396614
    C     -3.58212778      2.84004331      5.47978127
    C     -4.78275077      2.99204622      6.35450898
    H     -4.61923275      3.84669802      7.02591211
    H     -4.95408870      2.09102629      6.96975803
    H     -5.69807151      3.17915419      5.76362443
    O      4.48487289     -2.36600632     -1.82717282
    H      4.68768933     -3.16874571     -1.33709634
    H      5.09210546     -1.72033305     -1.47365531
