51
Energy:    -59.71712999
    H     -2.96853154     -6.16953785     -3.27540668
    C     -2.62380115     -5.14525360     -3.44411569
    C     -2.16247997     -4.38726411     -2.36258405
    C     -2.64709287     -4.60472411     -4.73696617
    H     -2.11075253     -4.83697622     -1.36693487
    C     -1.71655493     -3.06343526     -2.58104924
    H     -3.01025356     -5.21341395     -5.57140850
    C     -2.20900969     -3.28386327     -4.98020426
    C     -1.23535041     -2.26102369     -1.47092858
    C     -1.74116201     -2.53001978     -3.89257218
    C     -2.24846466     -2.70880014     -6.37654473
    N     -0.36203093     -1.21885264     -1.54123210
    N     -1.56870787     -2.40404834     -0.16172968
    H     -1.43136590     -1.49378361     -4.06594449
    H     -3.27520372     -2.72122395     -6.77971038
    H     -1.62255320     -3.30142436     -7.06420771
    H     -1.88926658     -1.66867860     -6.39817598
    H      0.11638603     -0.94646790     -2.39741477
    C     -0.11811338     -0.69230271     -0.26998649
    H     -2.27260719     -3.05602223      0.17577410
    C     -0.90280027     -1.46081527      0.62536145
    C      0.68981348      0.35085425      0.18342254
    C     -0.90800389     -1.20557343      1.99529631
    H      1.29793473      0.94600147     -0.50495912
    C      0.71036879      0.63110094      1.56836524
    H     -1.52879407     -1.74439220      2.71944953
    C     -0.06429512     -0.19432342      2.46856992
    C      1.54879947      1.78415783      1.99580272
    S     -0.04838213     -0.02976099      4.31981896
    C      2.51828256      1.65125480      3.02862134
    C      1.41208654      2.99942428      1.29023979
    O      1.27208153     -0.65324708      4.67979369
    O     -0.15384751      1.44444476      4.54625980
    O     -1.24456773     -0.83805882      4.73072604
    H      2.56791780      0.70884057      3.58002481
    C      3.35740191      2.70880827      3.38025234
    H      0.63804674      3.11793375      0.52424835
    C      2.24566992      4.05486886      1.66914542
    H      4.09873145      2.59691929      4.17623059
    C      3.23098895      3.92870773      2.68960403
    N      2.36378101      5.37082296      1.23706142
    N      3.94170871      5.11735234      2.83051327
    H      1.78919533      5.82968115      0.53669619
    C      3.35859292      5.96983867      2.00075667
    C      3.69629861      7.41825283      1.86733893
    H      4.50881370      7.65308356      2.56921054
    H      2.83055193      8.06111614      2.10594835
    H      4.03258359      7.66711403      0.84413488
    O     -3.26026522     -4.00213958      1.26659976
    H     -4.09339018     -4.38581140      1.55711436
    H     -2.80838746     -3.78933998      2.07969435
