51
Energy:    -59.58625015
    H      3.56178537     -6.10947438     -2.71332744
    C      2.62739813     -5.73691324     -2.28370124
    C      2.53661697     -4.39758011     -1.88997347
    C      1.53462505     -6.60138862     -2.13301511
    H      3.38360436     -3.72501127     -2.05275404
    C      1.32854680     -3.91620063     -1.33505071
    H      1.62377018     -7.64612097     -2.44808726
    C      0.31791062     -6.14467010     -1.57914763
    C      1.21570589     -2.52967743     -0.91958670
    C      0.23021040     -4.79844191     -1.19174172
    C     -0.84968601     -7.08855138     -1.41233265
    N      0.07000975     -1.79933666     -0.83165083
    N      2.23165786     -1.70996560     -0.54342300
    H     -0.69771940     -4.44386549     -0.73018041
    H     -0.57698947     -7.94451360     -0.77213326
    H     -1.16626814     -7.49901246     -2.38554715
    H     -1.71599709     -6.58678275     -0.95508287
    H     -0.83770480     -2.14320161     -1.13814094
    C      0.34620354     -0.49628313     -0.40905826
    H      3.19546723     -2.01575674     -0.43380427
    C      1.74945375     -0.43882897     -0.22042937
    C     -0.46410825      0.61580935     -0.17852168
    C      2.38118484      0.72656150      0.20931227
    H     -1.54812505      0.57550481     -0.32400062
    C      0.14749860      1.81445381      0.25300529
    H      3.45535388      0.80668611      0.40892423
    C      1.58586663      1.86275033      0.39640281
    C     -0.76448994      2.95691745      0.53276007
    S      2.54618321      3.39179154      0.83717721
    C     -0.54865948      4.23606338     -0.05160102
    C     -1.90159565      2.71523694      1.33398610
    O      2.52097071      4.16234808     -0.45415852
    O      1.76626224      3.98827472      1.96483499
    O      3.89388472      2.83901072      1.19937054
    H      0.36300587      4.39762681     -0.63247755
    C     -1.44265623      5.28821495      0.14822863
    H     -2.04795900      1.74441294      1.81978804
    C     -2.77568009      3.78547453      1.54125863
    H     -1.26730374      6.26798132     -0.30451784
    C     -2.57912649      5.06518408      0.94811773
    N     -3.94345492      3.92498630      2.28235270
    N     -3.61877403      5.92559327      1.28970670
    H     -4.37085085      3.21847532      2.87344148
    C     -4.37425203      5.23796049      2.13331038
    C     -5.56169648      5.77054045      2.86548745
    H     -5.70202119      6.82348667      2.58341792
    H     -5.42229089      5.71661715      3.95973759
    H     -6.48203267      5.21301264      2.61228783
    O      4.97607014     -1.87266404     -0.55569948
    H      5.32403770     -1.34587560     -1.28172463
    H      5.74615747     -2.08085898     -0.03203894
