51
Energy:    -58.52560566
    H     -7.45839444     -1.41822772     -1.56107155
    C     -6.68957421     -0.68091157     -1.31259550
    C     -5.38989946     -1.11163360     -1.02554139
    C     -7.01271304      0.68253642     -1.28488482
    H     -5.14290799     -2.17500076     -1.09247041
    C     -4.39623540     -0.15829436     -0.70480002
    H     -8.03491031      1.00105329     -1.51367019
    C     -6.03803730      1.65384016     -0.96499224
    C     -3.04216497     -0.58626325     -0.40292934
    C     -4.73415059      1.21670210     -0.68411016
    C     -6.40089179      3.11979237     -0.92836241
    N     -1.90658339      0.15072570     -0.54802159
    N     -2.66256819     -1.79850366      0.07869755
    H     -3.98023576      1.95955869     -0.40198693
    H     -7.20650292      3.30894083     -0.19890812
    H     -6.76688923      3.45945399     -1.91148238
    H     -5.53902045      3.74512361     -0.65000542
    H     -1.88996172      1.07498865     -0.97415152
    C     -0.78438802     -0.59181664     -0.17102769
    H     -3.31521827     -2.52540906      0.36173360
    C     -1.27545946     -1.85675571      0.23734836
    C      0.57953582     -0.29925273     -0.14612523
    C     -0.42071665     -2.86105456      0.68756559
    H      0.96261676      0.67624180     -0.46162548
    C      1.47276472     -1.29911446      0.30046814
    H     -0.75695478     -3.83781840      1.05223025
    C      0.95354506     -2.59728521      0.67055145
    C      2.91144238     -0.92177125      0.35549263
    S      2.00649265     -4.04813455      1.16125967
    C      3.91021954     -1.72099146     -0.26737674
    C      3.25206771      0.29948119      0.97670021
    O      2.55318969     -4.50270110     -0.16404505
    O      3.00327805     -3.45960622      2.10769207
    O      1.00660972     -4.98713715      1.77081544
    H      3.61564849     -2.67926985     -0.70278967
    C      5.24977895     -1.33170867     -0.28235954
    H      2.49228548      0.89543492      1.49389951
    C      4.60090634      0.66416867      0.97109648
    H      6.01009675     -1.95353111     -0.76290475
    C      5.60688027     -0.11898396      0.33643561
    N      5.29181882      1.74648668      1.50364664
    N      6.84926938      0.49863347      0.44989044
    H      4.89825004      2.49768581      2.06222921
    C      6.63694883      1.56772298      1.20303093
    C      7.69088297      2.50239362      1.69837185
    H      8.66639507      2.15475904      1.33030074
    H      7.72278198      2.53091820      2.80195411
    H      7.52565874      3.53373012      1.33641609
    O     -1.70286832      2.57260518     -1.72875572
    H     -1.70482403      2.67617930     -2.68529562
    H     -1.21729351      3.33202023     -1.41553711
