51
Energy:    -58.18336897
    H      5.71155695     -2.98727244      4.29882093
    C      4.64938512     -2.73949971      4.21599778
    C      4.19107376     -2.04022039      3.09437613
    C      3.76160108     -3.12393832      5.23001132
    H      4.88842850     -1.78413393      2.29166192
    C      2.81797168     -1.72045769      2.98741111
    H      4.13826762     -3.67186053      6.09983116
    C      2.38578641     -2.81407561      5.14710107
    C      2.32386055     -0.99430346      1.83140755
    C      1.93027570     -2.11797511      4.01658832
    C      1.44032262     -3.22487891      6.25134736
    N      1.05614722     -1.02333204      1.33561499
    N      3.03583800     -0.15477533      1.03525076
    H      0.87132319     -1.84374107      3.95973506
    H      1.74789461     -2.78896555      7.21688814
    H      1.43410461     -4.32032602      6.37706914
    H      0.40937463     -2.89869611      6.04617662
    H      0.33019547     -1.64184704      1.69136525
    C      0.94925553     -0.20897007      0.20503782
    H      3.99684752      0.12232002      1.21999886
    C      2.23418302      0.35611965      0.01105858
    C     -0.11123956      0.08599948     -0.65219326
    C      2.49423010      1.23522281     -1.03844137
    H     -1.10477909     -0.34922099     -0.50609964
    C      0.12209771      0.97029247     -1.72950781
    H      3.45829363      1.72859126     -1.20358700
    C      1.45209867      1.50044986     -1.93402816
    C     -1.05231854      1.29178095     -2.58542874
    S      1.94479717      2.57510708     -3.36818890
    C     -0.99713826      1.15160817     -4.00020142
    C     -2.25479934      1.66459762     -1.94634372
    O      2.03014734      1.57978612     -4.49246313
    O      0.83304053      3.57027728     -3.46470039
    O      3.27100196      3.12236237     -2.92689252
    H     -0.03923472      0.90099222     -4.46309068
    C     -2.11796829      1.37971470     -4.79888312
    H     -2.28906102      1.81479142     -0.86181942
    C     -3.36212406      1.90976521     -2.76250474
    H     -2.06503945      1.27026227     -5.88557015
    C     -3.32356798      1.75646456     -4.17782038
    N     -4.66297725      2.32094175     -2.49586488
    N     -4.57219131      2.02542943     -4.73140114
    H     -5.04434060      2.56433535     -1.58672652
    C     -5.32409360      2.41990239     -3.71440211
    C     -6.72629649      2.92296562     -3.81688834
    H     -7.02632689      2.90672362     -4.87408650
    H     -6.81489312      3.95855671     -3.44348945
    H     -7.42969500      2.29310818     -3.24201779
    O     -0.91786902     -2.70866906      2.08286256
    H     -0.81016299     -3.66064326      1.99429318
    H     -1.86328432     -2.58066590      2.06273565
