51
Energy:    -64.79567665
    H      1.51888079      4.75953555     -5.68734020
    C      1.23033783      3.73693382     -5.42755441
    C      1.11977187      3.37387813     -4.08106203
    C      0.97478097      2.80443985     -6.44210982
    H      1.28117647      4.12369419     -3.30134514
    C      0.74637468      2.05208824     -3.74558472
    H      1.06505582      3.10710413     -7.49040739
    C      0.60249909      1.47736388     -6.13222184
    C      0.62752149      1.65639834     -2.35378968
    C      0.48681578      1.12023008     -4.77975083
    C      0.33954214      0.47845307     -7.23451574
    N     -0.14473198      0.65007859     -1.85912299
    N      1.26460889      2.21767918     -1.29328581
    H      0.23180655      0.08473556     -4.52967405
    H      1.22793416      0.35661166     -7.87701421
    H     -0.48609090      0.81586000     -7.88284871
    H      0.07517891     -0.51114611     -6.83183778
    H     -0.79749634      0.11448335     -2.42759588
    C     -0.01760710      0.56720475     -0.46995518
    H      1.97313827      2.94257497     -1.37674356
    C      0.89862346      1.58394851     -0.10287659
    C     -0.59566128     -0.26946556      0.48520875
    C      1.26790125      1.78920825      1.22505388
    H     -1.30438768     -1.05521945      0.20560417
    C     -0.24536975     -0.08289827      1.84149615
    H      2.00253684      2.53334472      1.55166596
    C      0.65762064      0.98925276      2.19772433
    C     -0.85009839     -1.03186712      2.81564726
    S      1.11933650      1.43718129      3.94146614
    C     -1.53794004     -0.56750442      3.97129260
    C     -0.79254063     -2.41103591      2.51906247
    O     -0.11666719      2.14673529      4.42185035
    O      1.40174583      0.11709723      4.58435342
    O      2.30790465      2.33275260      3.74574238
    H     -1.52712774      0.50328061      4.19028238
    C     -2.17033594     -1.45089662      4.84643752
    H     -0.22765471     -2.77439953      1.65373261
    C     -1.41294971     -3.28355513      3.41694710
    H     -2.69561166     -1.08408570      5.73255556
    C     -2.11859106     -2.82956180      4.56762791
    N     -1.52427576     -4.66822628      3.46866101
    N     -2.66884022     -3.90584559      5.25805753
    H     -1.10671411     -5.33153400      2.82300155
    C     -2.24231139     -4.98347622      4.61615537
    C     -2.47956615     -6.39555023      5.03983708
    H     -3.06788004     -6.38704616      5.96814976
    H     -1.53074120     -6.92733918      5.23129656
    H     -3.03901153     -6.96365179      4.27416908
    O      3.13604218      4.14869070     -1.26474716
    H      4.08556770      4.04090001     -1.37647205
    H      3.05749972      4.85256573     -0.62522311
