51
Energy:    -64.77903539
    H      7.33582385      1.74180971     -0.67634446
    C      6.41011457      1.95674984     -0.13475138
    C      5.23311902      1.29014935     -0.49168450
    C      6.41241995      2.89366445      0.90753586
    H      5.25614592      0.53114662     -1.27884307
    C      4.03678794      1.56789706      0.20884899
    H      7.34344928      3.40455769      1.17372283
    C      5.22949368      3.18995754      1.62073348
    C      2.80520412      0.88694052     -0.14792752
    C      4.05286975      2.51357346      1.26273110
    C      5.24231677      4.20929149      2.73554955
    N      1.73777910      0.66030485      0.66631452
    N      2.49436499      0.35278913     -1.35774004
    H      3.12387463      2.76151174      1.78743261
    H      5.57769309      5.19338101      2.36679417
    H      5.93818120      3.90832808      3.53620098
    H      4.24399523      4.33734821      3.18085797
    H      1.73487404      0.88175717      1.65983122
    C      0.73570566     -0.03551909     -0.01522334
    H      3.07706807      0.44825763     -2.18586798
    C      1.22635118     -0.23371872     -1.32974869
    C     -0.52036026     -0.50495154      0.37004744
    C      0.47529826     -0.89913589     -2.29672154
    H     -0.90229020     -0.35457632      1.38463988
    C     -1.30415723     -1.18868463     -0.58661256
    H      0.79450535     -1.03925898     -3.33526684
    C     -0.76522720     -1.41802112     -1.90901840
    C     -2.65548065     -1.62584518     -0.14161295
    S     -1.61983184     -2.40076258     -3.23503768
    C     -3.08787299     -2.97173468     -0.30252697
    C     -3.47112866     -0.68313233      0.52125416
    O     -1.40902328     -3.81368833     -2.76478076
    O     -3.02986696     -1.90520698     -3.19137276
    O     -0.84063489     -2.03748109     -4.46545577
    H     -2.44756964     -3.66320384     -0.85618393
    C     -4.32363683     -3.40236074      0.18082996
    H     -3.15942238      0.36333969      0.60877848
    C     -4.71439559     -1.12561392      0.98048330
    H     -4.64729012     -4.43876176      0.05124802
    C     -5.15087552     -2.47391566      0.84022049
    N     -5.76789033     -0.48780339      1.62525345
    N     -6.40462023     -2.64327194      1.42099295
    H     -5.82408661      0.49910308      1.85778001
    C     -6.76857128     -1.43286525      1.81811796
    C     -8.09251107     -1.07606856      2.40941192
    H     -8.70789753     -1.98523462      2.46105092
    H     -8.62379559     -0.32790630      1.79482670
    H     -7.98696323     -0.66445469      3.42990184
    O      3.87762983      0.44909678     -3.66193180
    H      3.94910408     -0.35543587     -4.18473066
    H      3.88123054      1.14765890     -4.31200718
