51
Energy:    -64.67900616
    H     -1.82321492      4.61726715     -5.71604234
    C     -1.40426106      3.64231483     -5.45070174
    C     -1.25903797      3.29941060     -4.10222002
    C     -1.01913703      2.74970174     -6.46020575
    H     -1.60308493      3.98920682     -3.32630323
    C     -0.71784647      2.03893650     -3.75956013
    H     -1.14151495      3.03486629     -7.51015233
    C     -0.47381250      1.48564733     -6.14312123
    C     -0.55845440      1.66574374     -2.36560484
    C     -0.33627842      1.14417199     -4.78865308
    C     -0.05289144      0.53614462     -7.24006747
    N     -0.52541295      0.40097773     -1.86258876
    N     -0.41340655      2.50976938     -1.31101163
    H      0.11683851      0.18020572     -4.53317105
    H      0.71320151      0.99551488     -7.88734683
    H     -0.90855550      0.27529090     -7.88477155
    H      0.36444229     -0.39699188     -6.83210565
    H     -0.69770052     -0.42965308     -2.42516715
    C     -0.37134879      0.42566677     -0.47389488
    H     -0.31819380      3.51834217     -1.40139121
    C     -0.29704182      1.79476813     -0.11607797
    C     -0.29288044     -0.58202937      0.48781880
    C     -0.13589650      2.19534843      1.20886151
    H     -0.35080274     -1.64047194      0.21537552
    C     -0.13468856     -0.20773221      1.84129727
    H     -0.03155875      3.23802158      1.52831469
    C     -0.10553111      1.19606708      2.18813354
    C     -0.00633517     -1.31940713      2.82257871
    S     -0.02410110      1.84624737      3.92741263
    C     -0.83060781     -1.38291662      3.98051488
    C      0.90468456     -2.35783117      2.53085871
    O     -1.43033212      1.62439147      4.41242320
    O      1.02675296      1.00135486      4.57358863
    O      0.33692452      3.28854502      3.72128653
    H     -1.49478287     -0.54187556      4.19539958
    C     -0.76521355     -2.46163899      4.86270910
    H      1.57049146     -2.29112484      1.66357765
    C      0.97261772     -3.42041161      3.43568017
    H     -1.40233441     -2.50062878      5.75053047
    C      0.14100837     -3.50320686      4.58879632
    N      1.75652549     -4.56695163      3.49327018
    N      0.39112694     -4.68154267      5.28652077
    H      2.49678100     -4.82466340      2.84765620
    C      1.39879971     -5.25582716      4.64617250
    C      2.10282257     -6.50035891      5.07656946
    H      1.64199262     -6.85735941      6.00830783
    H      3.17546282     -6.31628853      5.26441508
    H      2.02310573     -7.29892630      4.31637123
    O     -0.16462987      5.21188826     -1.27544133
    H     -0.67195060      5.70260908     -0.62159215
    H      0.62926082      5.72941764     -1.38724884
