51
Energy:    -62.97494139
    H      3.70196074      2.70345415     -6.01919804
    C      3.59941392      1.85504027     -5.33645501
    C      2.68450119      1.92776440     -4.28065109
    C      4.38207625      0.70795475     -5.52569420
    H      2.05086215      2.81247727     -4.17102126
    C      2.55188188      0.83076701     -3.39854688
    H      5.09187133      0.66859325     -6.35835536
    C      4.26941381     -0.39998155     -4.65647654
    C      1.60854724      0.88815479     -2.29645052
    C      3.34535611     -0.32420352     -3.60268336
    C      5.12580286     -1.62688778     -4.86461091
    N      1.01540265     -0.17089076     -1.67972365
    N      1.14681668      2.00775880     -1.68092087
    H      3.27535983     -1.16467771     -2.90374083
    H      6.19814764     -1.37139599     -4.82349393
    H      4.93678622     -2.07573231     -5.85388352
    H      4.93118422     -2.39320273     -4.09895499
    H      1.11736873     -1.13250036     -1.99758354
    C      0.15519144      0.26495109     -0.66834116
    H      1.48573239      2.94545174     -1.88172199
    C      0.24179655      1.67933877     -0.66814604
    C     -0.67384306     -0.41242043      0.22629375
    C     -0.49050846      2.45546367      0.22809975
    H     -0.74404613     -1.50464182      0.22851876
    C     -1.43360623      0.34700589      1.14447598
    H     -0.42471513      3.54701246      0.29364717
    C     -1.36295822      1.79081422      1.09731293
    C     -2.26391544     -0.42337581      2.11003679
    S     -2.38729329      2.92703996      2.15286288
    C     -3.65034638     -0.15034697      2.27598702
    C     -1.65378113     -1.49194480      2.80233616
    O     -3.73441305      2.84368652      1.48934081
    O     -2.29672296      2.32214565      3.51726051
    O     -1.69509749      4.24761785      1.97968950
    H     -4.07916728      0.70956346      1.75510248
    C     -4.44756865     -0.91921606      3.12419806
    H     -0.57823686     -1.67764742      2.70936264
    C     -2.46171314     -2.23867715      3.66374818
    H     -5.51206408     -0.70066138      3.24566132
    C     -3.85381994     -1.98557324      3.82525073
    N     -2.20526872     -3.30857347      4.51341878
    N     -4.41655776     -2.90219212      4.70898709
    H     -1.30150673     -3.73783576      4.68708271
    C     -3.39969348     -3.62947165      5.14751249
    C     -3.47895004     -4.68357780      6.20218193
    H     -4.51998521     -4.75394706      6.54749910
    H     -2.83821639     -4.44087901      7.06837052
    H     -3.16883523     -5.67201774      5.81646014
    O      1.96175471      4.56389236     -2.01755721
    H      2.69659197      5.09041508     -2.34693243
    H      1.49900995      5.15610898     -1.42955485
