64
Energy:    -65.84859027
    H      0.77305400     -1.91009482     -1.46058001
    O      0.81980429     -2.06806285     -0.45084613
    S      0.11813349     -0.79373273      0.28994186
    C     -1.32644315     -0.51164457     -0.78495097
    O     -0.29070965     -1.27178295      1.61870869
    O      0.98430144      0.40262886      0.15749932
    C     -1.19231270     -0.85867237     -2.14696225
    C     -2.52639333      0.09499599     -0.35547362
    N     -0.11610243     -1.43986104     -2.79806684
    C     -2.24732263     -0.62358358     -3.06497984
    C     -3.58134643      0.25639501     -1.30488888
    C     -2.76067488      0.57989971      1.03043314
    C     -0.47573819     -1.56779433     -4.07730419
    N     -1.76006906     -1.08576233     -4.27992542
    C     -3.45479130     -0.04403921     -2.66224700
    H     -4.52026391      0.68084687     -0.93897416
    C     -3.96173119      0.21410683      1.70357006
    C     -1.82909535      1.43645923      1.64911833
    C      0.36123436     -2.13681585     -5.13398649
    H     -2.23136019     -1.01459307     -5.17678304
    H     -4.26599579      0.16990223     -3.36444593
    H     -4.65443372     -0.46669676      1.19910233
    C     -4.24971954      0.65302059      2.99921330
    H     -0.92541889      1.75821635      1.12427530
    C     -2.11554969      1.84899725      2.95175922
    C     -0.17469084     -2.51473921     -6.38367729
    C      1.74109890     -2.30871463     -4.89085964
    H     -5.17447564      0.36460637      3.50487563
    C     -3.31240937      1.48102191      3.64047257
    N     -1.42158008      2.63806358      3.85772859
    H     -1.24812385     -2.43091129     -6.58707699
    C      0.67334805     -3.00659178     -7.38270987
    H      2.14345776     -2.01051377     -3.91866902
    C      2.59149887     -2.84793257     -5.86930223
    N     -3.33748774      2.04587089      4.91072557
    H     -0.49527035      3.03359869      3.71904814
    C     -2.18475836      2.71470516      5.01300301
    H      0.25663104     -3.29941789     -8.35021481
    C      2.05008131     -3.12346588     -7.14528202
    C      4.04420197     -3.12660272     -5.56285541
    C     -1.72903484      3.47574147      6.21580924
    H      2.71506500     -3.43426869     -7.95894798
    H      4.69012117     -2.88353669     -6.42211572
    H      4.39155681     -2.54577128     -4.69456143
    H      4.19559902     -4.19512790     -5.33111878
    H     -1.62484672      4.55372517      5.99813518
    H     -2.47509824      3.35068488      7.01207819
    H     -0.75442309      3.10987150      6.58119547
    C      3.56421109     -0.13650602      2.83440103
    C      3.12301146      1.31888205      2.77380027
    O      3.11221285      1.72161433      1.39840647
    C      1.73636497      1.56597674      3.40779532
    C      1.68635428      1.25935103      4.89690701
    O      1.35382147      2.93559299      3.22108488
    H      4.50154396     -0.27160900      2.28423989
    H      2.82299413     -0.78874176      2.36161043
    H      3.72252244     -0.46603889      3.86407263
    H      3.87523674      1.94794650      3.26295877
    H      2.22301769      1.54810690      1.04296430
    H      0.97906875      0.96859285      2.88759447
    H      2.44746891      1.83161012      5.43890612
    H      1.84113434      0.19547772      5.09331655
    H      0.71625286      1.55049972      5.31433925
    H      2.16326773      3.47661695      3.23871540
