64
Energy:    -65.46589089
    H      0.08458975     -2.05485016     -1.45485640
    O      0.07281954     -2.21869496     -0.44504535
    S     -0.16422277     -0.78255819      0.29410829
    C     -1.42799139     -0.03410360     -0.78499995
    O     -0.71335980     -1.09539630      1.62146914
    O      1.05269125      0.05496360      0.16469984
    C     -1.41369091     -0.40689989     -2.14673136
    C     -2.35707322      0.93933559     -0.35889303
    N     -0.59204870     -1.31509810     -2.79482554
    C     -2.32653351      0.16702521     -3.06781625
    C     -3.29442502      1.44377831     -1.31140242
    C     -2.41969198      1.47558581      1.02648474
    C     -0.96999371     -1.31616816     -4.07518074
    N     -2.01842341     -0.43233745     -4.28146800
    C     -3.27168761      1.11742789     -2.66848621
    H     -4.03828922      2.15815081     -0.94814358
    C     -3.67589143      1.53316548      1.69588860
    C     -1.25703935      1.97149548      1.64827125
    C     -0.36853515     -2.13312155     -5.12956243
    H     -2.43609807     -0.20817190     -5.17970610
    H     -3.96248804      1.58999305     -3.37303140
    H     -4.55496703      1.12303351      1.18909885
    C     -3.80424310      2.04398650      2.99082556
    H     -0.29624961      1.97201258      1.12625419
    C     -1.39279085      2.45695220      2.95020070
    C     -0.99633764     -2.31077160     -6.38099101
    C      0.87356735     -2.75663020     -4.88236950
    H     -4.77368513      2.08193094      3.49361118
    C     -2.64581162      2.51108128      3.63519267
    N     -0.47748061      2.96894621      3.85853394
    H     -1.97925442     -1.87275808     -6.58757212
    C     -0.35880103     -3.05866838     -7.37766169
    H      1.34964531     -2.60960089     -3.90886904
    C      1.49742079     -3.54993904     -5.85846068
    N     -2.48419652      3.05259825      4.90557290
    H      0.52818568      3.03166929      3.72277265
    C     -1.17442954      3.29727144      5.01154684
    H     -0.84662507     -3.19582568     -8.34651751
    C      0.89877767     -3.62927965     -7.13615685
    C      2.77225349     -4.29839444     -5.54776937
    C     -0.49388568      3.86275769      6.21599209
    H      1.42384005     -4.14519311     -7.94794302
    H      3.46479852     -4.28601147     -6.40500274
    H      3.29136649     -3.86668813     -4.67822561
    H      2.55673375     -5.35584006     -5.31597421
    H     -0.03438885      4.84361203      5.99902799
    H     -1.24113365      3.99504800      7.00997808
    H      0.30106280      3.19212678      6.58415930
    C      3.30253153     -1.34249378      2.82774133
    C      3.40033499      0.17522365      2.76898517
    O      3.53103183      0.55782133      1.39401049
    C      2.18896590      0.89261386      3.40438285
    C      2.03511861      0.62121245      4.89322343
    O      2.31152672      2.30958325      3.21938127
    H      4.13253896     -1.79738396      2.27666457
    H      2.37931332     -1.69240616      2.35490471
    H      3.33551052     -1.70790920      3.85694585
    H      4.32573295      0.49955460      3.25815698
    H      2.63737191      0.70797029      1.03913132
    H      1.26992885      0.59976577      2.88420510
    H      2.94891961      0.88916736      5.43517075
    H      1.80663364     -0.42952606      5.08842384
    H      1.22915567      1.23388473      5.31175710
    H      3.25939614      2.53197494      3.23688856
