64
Energy:    -65.41190415
    H      0.72998140     -1.90072787     -1.49311151
    O      0.76046993     -2.08043460     -0.48639510
    S      0.09049218     -0.79997387      0.27293100
    C     -1.33246938     -0.45114974     -0.81116868
    O     -0.34789326     -1.29171594      1.58720417
    O      0.99486668      0.37110994      0.17424740
    C     -1.19392496     -0.77464012     -2.17852139
    C     -2.51772081      0.18397156     -0.38204868
    N     -0.12906880     -1.37597850     -2.82999627
    C     -2.23075333     -0.48814764     -3.10263069
    C     -3.55643120      0.39745750     -1.33905939
    C     -2.75234312      0.64789560      1.01096383
    C     -0.47813767     -1.46673696     -4.11532379
    N     -1.74450816     -0.94073479     -4.32158455
    C     -3.42406158      0.12067162     -2.70088385
    H     -4.48574378      0.84362648     -0.97446322
    C     -3.97166542      0.30637418      1.66370440
    C     -1.80158163      1.46220131      1.65692419
    C      0.35253865     -2.04023794     -5.17454967
    H     -2.20327013     -0.83675232     -5.22172848
    H     -4.22029576      0.37404057     -3.40708658
    H     -4.67949731     -0.34208303      1.13806643
    C     -4.26038263      0.72784407      2.96496514
    H     -0.88250902      1.76603519      1.14838755
    C     -2.08966416      1.85712448      2.96465549
    C     -0.18082681     -2.37588952     -6.43733560
    C      1.72357819     -2.26013122     -4.92041682
    H     -5.19927162      0.45837721      3.45478762
    C     -3.30503467      1.51297625      3.63296793
    N     -1.38170325      2.60562407      3.89392387
    H     -1.24878590     -2.25440280     -6.65031764
    C      0.66266236     -2.87378547     -7.43722592
    H      2.12408416     -1.99436245     -3.93810682
    C      2.56772365     -2.80584924     -5.90066999
    N     -3.32678549      2.05257442      4.91421214
    H     -0.44204717      2.97468016      3.77320082
    C     -2.15503927      2.68278594      5.04238869
    H      0.24792063     -3.13382823     -8.41489307
    C      2.03234694     -3.03847916     -7.18769411
    C      4.00753231     -3.13599876     -5.58465522
    C     -1.68939502      3.40474225      6.26531858
    H      2.69643062     -3.35346150     -8.00048744
    H      4.67029281     -2.89597937     -6.43186251
    H      4.36301646     -2.58397589     -4.70099421
    H      4.12302759     -4.21320092     -5.37331344
    H     -1.54930842      4.48310971      6.07093401
    H     -2.44786965      3.28705770      7.05091427
    H     -0.73078858      3.00123332      6.63340856
    C      1.66578545      1.10253478      4.94017969
    C      1.74688013      1.43544934      3.45725165
    O      1.41233789      2.81956612      3.29501656
    C      3.13399360      1.15109573      2.84011858
    C      3.52589313     -0.31822667      2.87859526
    O      3.15516393      1.58295479      1.47260311
    H      0.69848047      1.41646103      5.34674381
    H      2.43523792      1.64032742      5.50326669
    H      1.77891120      0.03045184      5.11827726
    H      0.97516684      0.87657615      2.91599352
    H      2.23650949      3.33450459      3.34689666
    H      3.89765552      1.74502819      3.35493769
    H      2.76829069     -0.93718767      2.38517371
    H      3.65508186     -0.67271143      3.90427105
    H      4.46471184     -0.47732354      2.33691121
    H      2.26171345      1.45764364      1.10618210
