64
Energy:    -65.41186303
    H      2.04409315      0.24490517     -1.46175981
    O      2.20020118      0.31169986     -0.45286400
    S      0.79502861     -0.04522103      0.29755158
    C      0.20539556     -1.44827486     -0.70521600
    O      1.15840007     -0.47536461      1.65558091
    O     -0.17579013      1.05730702      0.09503768
    C      0.58485011     -1.47148819     -2.06498413
    C     -0.65812260     -2.45656586     -0.22560195
    N      1.39767192     -0.59034922     -2.75986601
    C      0.12698827     -2.49713341     -2.93071123
    C     -1.04389838     -3.50036173     -1.12116448
    C     -1.19457461     -2.49870398      1.16047187
    C      1.45232628     -1.04054001     -4.01545119
    N      0.69654936     -2.19416434     -4.15990930
    C     -0.71158702     -3.52028692     -2.47684518
    H     -1.67087132     -4.29884957     -0.71503508
    C     -1.11265493     -3.71146752      1.90340373
    C     -1.82576890     -1.36629051      1.71141606
    C      2.20304244     -0.41221976     -5.10289081
    H      0.52900946     -2.68715720     -5.03193133
    H     -1.09600622     -4.30130138     -3.13952556
    H     -0.60017892     -4.56578911      1.45028016
    C     -1.61557385     -3.82119174      3.20313722
    H     -1.93260419     -0.44444843      1.13313206
    C     -2.30269717     -1.48001692      3.01859728
    C      2.46159595     -1.08811088     -6.31453857
    C      2.67764212      0.90586387     -4.92940690
    H     -1.54579684     -4.75718007      3.76269778
    C     -2.21783879     -2.68831110      3.77690409
    N     -2.92370280     -0.57780955      3.87028612
    H      2.14113691     -2.12541868     -6.46271256
    C      3.13911077     -0.42856837     -7.34659106
    H      2.46914961      1.41843611     -3.98612986
    C      3.40167653      1.55828559     -5.94005327
    N     -2.78439044     -2.51549493      5.03483087
    H     -3.10054826      0.40415504      3.67483480
    C     -3.17884927     -1.23869119      5.06238919
    H      3.33911061     -0.95365135     -8.28454305
    C      3.55943131      0.89843014     -7.17976300
    C      3.99612481      2.92696866     -5.70499818
    C     -3.82834646     -0.55796593      6.22358234
    H      4.01797435      1.43062254     -8.02081206
    H      3.91099637      3.56167607     -6.60194893
    H      3.50072774      3.44327581     -4.86835987
    H      5.06946686      2.84879137     -5.45965321
    H     -4.85377357     -0.22816387      5.97860102
    H     -3.88013766     -1.26731890      7.06049931
    H     -3.25648997      0.32929499      6.54449386
    C     -0.88648802      2.19193614      4.77550260
    C     -1.15892050      2.22993870      3.27856561
    O     -2.57695194      2.15590017      3.08434112
    C     -0.59546623      3.48966741      2.58473793
    C      0.92043770      3.59477241      2.65518096
    O     -0.97952655      3.49612894      1.20288956
    H     -1.39220156      1.33391169      5.23110205
    H     -1.27947889      3.08804865      5.26630352
    H      0.18223484      2.11007688      4.98765469
    H     -0.74625783      1.32912486      2.81050052
    H     -2.92370800      3.06496901      3.06275208
    H     -1.04338776      4.38743669      3.02559009
    H      1.39352532      2.69966057      2.23625152
    H      1.26657511      3.72608509      3.68343476
    H      1.27228461      4.44497148      2.06063971
    H     -1.02016835      2.57153019      0.90009192
