64
Energy:    -65.39696379
    H     -0.04277534     -2.29278220      1.05658228
    O      0.82278721     -1.75942009      1.17072407
    S      0.57273403     -0.26179381      0.57104505
    C     -1.10740677      0.08844506      1.18442066
    O      1.56837655      0.60537593      1.21758862
    O      0.47929582     -0.32284938     -0.90767417
    C     -1.96943332     -1.01514747      1.36466426
    C     -1.61204804      1.38664386      1.41324606
    N     -1.70976495     -2.36437159      1.18546438
    C     -3.31033508     -0.82956358      1.78728711
    C     -2.95044293      1.51795357      1.89472491
    C     -0.83321238      2.63185200      1.18166734
    C     -2.84126283     -3.00724204      1.48309354
    N     -3.83464138     -2.11326413      1.85311861
    C     -3.82973207      0.44377574      2.04200218
    H     -3.30381733      2.52908072      2.11465086
    C     -0.79486200      3.62956820      2.19780987
    C     -0.18600811      2.84462508     -0.05128044
    C     -3.02393325     -4.45800005      1.43000181
    H     -4.79923192     -2.35288574      2.06211761
    H     -4.87000226      0.60430000      2.34029213
    H     -1.29460925      3.42284298      3.14930100
    C     -0.09696246      4.82969635      2.03378956
    H     -0.24608683      2.10412356     -0.85356907
    C      0.52772527      4.03587841     -0.19486728
    C     -4.13203468     -5.08984946      2.03386151
    C     -2.06300498     -5.24067223      0.75418594
    H     -0.07476581      5.58677200      2.82144099
    C      0.58112241      5.03978665      0.82077144
    N      1.30039503      4.54541639     -1.22847865
    H     -4.87245755     -4.51330689      2.59957313
    C     -4.29237836     -6.47506182      1.91290017
    H     -1.20998013     -4.73813786      0.28966595
    C     -2.18888722     -6.63652234      0.67026847
    N      1.34860159      6.11980401      0.39915052
    H      1.52488328      4.06869185     -2.09800079
    C      1.77699473      5.78231618     -0.82116349
    H     -5.15110687     -6.96322900      2.38166893
    C     -3.35753749     -7.23365492      1.19454437
    C     -1.10243354     -7.47438072      0.03818879
    C      2.66783800      6.61348465     -1.68670391
    H     -3.53406891     -8.30392663      1.03895150
    H     -1.52601343     -8.30258165     -0.55281399
    H     -0.46135562     -6.87105493     -0.62284986
    H     -0.45526370     -7.92185487      0.81233806
    H      2.15956009      6.91578508     -2.61973875
    H      2.94801169      7.51926240     -1.13230028
    H      3.58599796      6.06839501     -1.96436478
    C      4.21057709      2.62968730     -1.93694901
    C      2.97079982      1.79920292     -2.23650201
    O      2.13191203      2.55730610     -3.11716361
    C      3.29069405      0.42467601     -2.86430569
    C      4.09584095     -0.48725538     -1.95101843
    O      2.07148872     -0.24917975     -3.20563513
    H      3.92329098      3.62795758     -1.58989551
    H      4.81354204      2.76994732     -2.83978088
    H      4.82883718      2.16505468     -1.16510123
    H      2.39196440      1.66415252     -1.31587616
    H      2.37520226      2.32966723     -4.03154997
    H      3.83120293      0.56453667     -3.80731318
    H      3.58480011     -0.62914395     -0.99224636
    H      5.09403171     -0.08514160     -1.76054607
    H      4.20314772     -1.48023136     -2.40112728
    H      1.39620114      0.00644145     -2.55228570
