64
Energy:    -65.38594993
    H      0.09319739     -2.05619724     -1.42236538
    O      0.08209725     -2.20495365     -0.41021405
    S     -0.15942818     -0.75868437      0.30741862
    C     -1.42573937     -0.03049797     -0.78252199
    O     -0.70737010     -1.05338271      1.63941657
    O      1.05478330      0.08069087      0.16526138
    C     -1.41044427     -0.42357652     -2.13852690
    C     -2.35786684      0.94623396     -0.37084602
    N     -0.58599656     -1.33873926     -2.77312058
    C     -2.32525037      0.13358589     -3.06791855
    C     -3.29696444      1.43337372     -1.33061451
    C     -2.42199913      1.50294673      1.00636673
    C     -0.96412157     -1.36017071     -4.05324369
    N     -2.01540138     -0.48287868     -4.27252764
    C     -3.27338026      1.08683208     -2.68266875
    H     -4.04305610      2.15072074     -0.97793973
    C     -3.67827932      1.56652107      1.67507622
    C     -1.26084786      2.01181440      1.62044118
    C     -0.36020692     -2.19088076     -5.09540198
    H     -2.43392059     -0.27351129     -5.17393818
    H     -3.96578995      1.54659516     -3.39407140
    H     -4.55611259      1.14604729      1.17464785
    C     -3.80807597      2.09624462      2.96225134
    H     -0.30014026      2.00759127      1.09828978
    C     -1.39796220      2.51625759      2.91498887
    C     -0.98761942     -2.38923696     -6.34391204
    C      0.88391836     -2.80665056     -4.83914854
    H     -4.77756155      2.13860945      3.46459975
    C     -2.65105044      2.57662509      3.59933574
    N     -0.48416199      3.04470435      3.81538501
    H     -1.97196141     -1.95750507     -6.55683322
    C     -0.34783932     -3.14991987     -7.32940579
    H      1.35966476     -2.64355401     -3.86804819
    C      1.51016351     -3.61247605     -5.80338310
    N     -2.49098349      3.13759993      4.86144184
    H      0.52127897      3.10860168      3.67850693
    C     -1.18199009      3.38801390      4.96349149
    H     -0.83536263     -3.30311360     -8.29600742
    C      0.91159215     -3.71283414     -7.07963408
    C      2.78742749     -4.35212348     -5.48177554
    C     -0.50308323      3.97362652      6.15921149
    H      1.43818370     -4.23915428     -7.88371271
    H      3.47980528     -4.35035389     -6.33923158
    H      3.30528354     -3.90580098     -4.61888718
    H      2.57532306     -5.40666618     -5.23414594
    H     -0.04675596      4.95258816      5.92751008
    H     -1.25063536      4.11539235      6.95127352
    H      0.29405850      3.31112133      6.53721672
    C      3.33593602     -1.33361411      2.83240887
    C      3.40026256      0.18558248      2.76616833
    O      3.53578197      0.56367563      1.39041470
    C      2.16696436      0.87895414      3.38584994
    C      2.00469593      0.61211519      4.87462123
    O      2.25953313      2.29731199      3.19417047
    H      4.18127816     -1.77267465      2.29190402
    H      2.42545893     -1.70670118      2.35263548
    H      3.36703766     -1.69269750      3.86389800
    H      4.31333254      0.53323110      3.26243907
    H      2.64249186      0.69181031      1.02609852
    H      1.25985068      0.56275740      2.85846167
    H      2.90692039      0.90342394      5.42386548
    H      1.79792541     -0.44243507      5.07344196
    H      1.18114956      1.20874854      5.28194668
    H      3.20196273      2.54103588      3.21958915
