64
Energy:    -65.23222200
    H      0.10638662     -2.04463527     -1.44962537
    O      0.09306646     -2.20679203     -0.43956113
    S     -0.15953168     -0.77160895      0.29628512
    C     -1.42690103     -0.03682859     -0.78798549
    O     -0.70977664     -1.08717636      1.62254063
    O      1.04994998      0.07693927      0.16904897
    C     -1.40500353     -0.41188929     -2.14899393
    C     -2.36626253      0.92870039     -0.36644339
    N     -0.57300670     -1.31357076     -2.79296427
    C     -2.32032528      0.15190614     -3.07386679
    C     -3.30535235      1.42273340     -1.32268954
    C     -2.43806390      1.46680126      1.01777084
    C     -0.94703110     -1.32041770     -4.07445241
    N     -2.00298102     -0.44672173     -4.28550010
    C     -3.27546323      1.09420302     -2.67910851
    H     -4.05691118      2.13081471     -0.96296857
    C     -3.69677275      1.51390714      1.68326845
    C     -1.28195653      1.97458059      1.64217607
    C     -0.33481847     -2.13362194     -5.12553783
    H     -2.41998394     -0.22803448     -5.18539923
    H     -3.96847165      1.55908748     -3.38658909
    H     -4.57046179      1.09473715      1.17456226
    C     -3.83379308      2.02580960      2.97688945
    H     -0.31963026      1.98308868      1.12306649
    C     -1.42616235      2.46106361      2.94281282
    C     -0.95713866     -2.31930843     -6.37853708
    C      0.91225622     -2.74513764     -4.87346789
    H     -4.80506948      2.05564696      3.47667229
    C     -2.68170806      2.50477619      3.62391427
    N     -0.51840596      2.98313912      3.85298615
    H     -1.94344303     -1.89080231     -6.58887773
    C     -0.30966564     -3.06302204     -7.37192711
    H      1.38398809     -2.59197119     -3.89879867
    C      1.54640533     -3.53435178     -5.84623814
    N     -2.52898547      3.05002065      4.89380020
    H      0.48704345      3.05495153      3.72015362
    C     -1.22187236      3.30702567      5.00329329
    H     -0.79324871     -3.20641769     -8.34200499
    C      0.95241120     -3.62150918     -7.12559366
    C      2.82717447     -4.27039235     -5.53034625
    C     -0.55026757      3.88093722      6.20877061
    H      1.48470164     -4.13396588     -7.93485816
    H      3.52217792     -4.25310248     -6.38550253
    H      3.33961507     -3.83234651     -4.66001558
    H      2.62076784     -5.32937996     -5.29730005
    H     -0.09923020      4.86562742      5.99143102
    H     -1.30112088      4.00769442      7.00025398
    H      0.24974365      3.21836613      6.58054686
    C      3.32272815     -1.34420087      2.85521262
    C      3.40163916      0.17403529      2.78299063
    O      3.54693702      0.54509385      1.40631998
    C      2.17212318      0.88153288      3.39416295
    C      2.00061232      0.62244550      4.88326730
    O      2.27889451      2.29814694      3.19705001
    H      4.16634248     -1.79342887      2.32039295
    H      2.41096437     -1.71072510      2.37283125
    H      3.34578000     -1.69925160      3.88830777
    H      4.31568174      0.51516695      3.28198598
    H      2.65655042      0.68008554      1.03740136
    H      1.26447328      0.57166567      2.86394793
    H      2.90304021      0.90756317      5.43541838
    H      1.78303471     -0.42927844      5.08549669
    H      1.18087764      1.22847751      5.28435863
    H      3.22344988      2.53311834      3.22576568
