64
Energy:    -65.01409351
    H      0.22954643     -2.05998870     -1.45187945
    O      0.23361992     -2.22002511     -0.44139751
    S     -0.11208635     -0.80357345      0.29288981
    C     -1.43348617     -0.16012181     -0.78490540
    O     -0.63120393     -1.15258486      1.62330853
    O      1.03564574      0.12544134      0.15609954
    C     -1.39439458     -0.53637484     -2.14519930
    C     -2.43412182      0.73994233     -0.35951520
    N     -0.50661955     -1.38067484     -2.79246974
    C     -2.35188475     -0.03898898     -3.06546495
    C     -3.41074167      1.16602029     -1.31084913
    C     -2.53401864      1.27549731      1.02394369
    C     -0.88723162     -1.41647285     -4.07153422
    N     -2.00181228     -0.61766737     -4.27777621
    C     -3.36683482      0.83674737     -2.66670662
    H     -4.20677487      1.82193513     -0.94790856
    C     -3.78885056      1.23807561      1.69733100
    C     -1.41154443      1.86286297      1.63986514
    C     -0.22730165     -2.18861719     -5.12470636
    H     -2.43837861     -0.43040146     -5.17548180
    H     -4.09441812      1.25124348     -3.37078226
    H     -4.63492466      0.75874751      1.19511473
    C     -3.95257964      1.74279143      2.99067114
    H     -0.45529451      1.93586364      1.11462615
    C     -1.58065808      2.34174561      2.94032236
    C     -0.84320048     -2.41975670     -6.37331045
    C      1.06025453     -2.71266736     -4.87923435
    H     -4.92050376      1.70738272      3.49655663
    C     -2.83200531      2.30119605      3.62930048
    N     -0.70515518      2.92712331      3.84355413
    H     -1.85781420     -2.06032586     -6.57831159
    C     -0.15249397     -3.12000850     -7.36916533
    H      1.52642314     -2.52501044     -3.90792456
    C      1.74091181     -3.45917075     -5.85428530
    N     -2.70910700      2.85894734      4.89698953
    H      0.29217520      3.06724545      3.70417016
    C     -1.42200494      3.20511320      4.99760007
    H     -0.63112629     -3.29871678     -8.33582993
    C      1.14636248     -3.59014279     -7.12964149
    C      3.07100434     -4.10497922     -5.54493390
    C     -0.78381408      3.82681475      6.19751782
    H      1.70746598     -4.06708236     -7.94114966
    H      3.75788015     -4.04239879     -6.40453049
    H      3.55763331     -3.63059934     -4.67884442
    H      2.93903830     -5.17499675     -5.30825594
    H     -0.40261169      4.83949660      5.97515278
    H     -1.53666497      3.90395271      6.99348219
    H      0.06197393      3.22154002      6.56564977
    C      3.47082645     -1.01029585      2.81094350
    C      3.42218250      0.51058871      2.77888229
    O      3.52765349      0.92847303      1.41203681
    C      2.14157131      1.09645490      3.41338193
    C      2.00130396      0.78496896      4.89570294
    O      2.12842538      2.52171476      3.25366177
    H      4.34577620     -1.37317997      2.26112439
    H      2.58997431     -1.43905250      2.32246398
    H      3.52970071     -1.38913844      3.83411998
    H      4.30752721      0.91380565      3.28328475
    H      2.62688956      0.99811415      1.05025449
    H      1.25979623      0.72573548      2.87857932
    H      2.88007559      1.13002204      5.45179446
    H      1.87357910     -0.28621231      5.07068020
    H      1.13624189      1.30955767      5.31592705
    H      3.05020401      2.83406459      3.28501060
