64
Energy:    -64.99680366
    H      0.13747215     -2.02523669     -1.45114000
    O      0.11585833     -2.19849180     -0.44306385
    S     -0.16168015     -0.77453184      0.30549237
    C     -1.42681797     -0.04338870     -0.78383128
    O     -0.72149704     -1.11109170      1.62254913
    O      1.03860252      0.08989037      0.19982898
    C     -1.38651253     -0.40336905     -2.14848640
    C     -2.38211389      0.90609600     -0.36165535
    N     -0.53708394     -1.28789788     -2.79348703
    C     -2.29918438      0.15933351     -3.07663776
    C     -3.31738164      1.39909870     -1.32216957
    C     -2.47453973      1.42824063      1.02743768
    C     -0.89794626     -1.28535679     -4.07875934
    N     -1.96226398     -0.42223750     -4.29128907
    C     -3.26969927      1.08568925     -2.68165437
    H     -4.08113259      2.09410825     -0.96263485
    C     -3.74043155      1.45292008      1.68040233
    C     -1.33111546      1.94313927      1.66912789
    C     -0.26521240     -2.07965704     -5.13214483
    H     -2.37272819     -0.19885105     -5.19303827
    H     -3.96109113      1.54981982     -3.39120854
    H     -4.60372942      1.02877422      1.15825764
    C     -3.89682762      1.94906510      2.97795941
    H     -0.36373522      1.96889916      1.16007886
    C     -1.49445770      2.41370530      2.97335330
    C     -0.87244958     -2.25923938     -6.39340697
    C      0.98659390     -2.67876773     -4.87381679
    H     -4.87342760      1.96174719      3.46800293
    C     -2.75730410      2.43486079      3.64191625
    N     -0.60243332      2.93679872      3.89837535
    H     -1.86171257     -1.84041791     -6.60928728
    C     -0.20589330     -2.98425833     -7.38799494
    H      1.44648838     -2.53049981     -3.89275375
    C      1.64017274     -3.44966582     -5.84841251
    N     -2.62415870      2.96809979      4.91908283
    H      0.40336509      3.02218437      3.77668380
    C     -1.32145557      3.23966728      5.04478350
    H     -0.67780324     -3.12294965     -8.36448443
    C      1.06032538     -3.53010405     -7.13467949
    C      2.92653771     -4.17357054     -5.52725813
    C     -0.66918771      3.80853426      6.26320050
    H      1.60702308     -4.02728518     -7.94386831
    H      3.62993905     -4.13861213     -6.37497592
    H      3.42472524     -3.73883715     -4.64704732
    H      2.73069216     -5.23743958     -5.30772185
    H     -0.22799656      4.80089936      6.06109191
    H     -1.42953975      3.91762033      7.04822216
    H      0.13501630      3.15167752      6.63606930
    C      3.40944564     -1.31231280      2.82098160
    C      3.38774655      0.20784099      2.74924864
    O      3.49390601      0.58787901      1.37145356
    C      2.12091926      0.83297688      3.37386671
    C      1.98243413      0.56292769      4.86446032
    O      2.13237925      2.25357890      3.17687034
    H      4.27507067     -1.70508754      2.27697396
    H      2.51869764     -1.73782720      2.34785320
    H      3.46660470     -1.66526400      3.85347193
    H      4.28260986      0.60816433      3.23894432
    H      2.59275316      0.66418213      1.01199095
    H      1.23005405      0.46427569      2.85291315
    H      2.86994412      0.90658604      5.40738200
    H      1.83651056     -0.50084790      5.06804767
    H      1.12893699      1.11375929      5.27463246
    H      3.05971944      2.55005653      3.19590126
