64
Energy:    -63.97429156
    H      0.11875700     -2.03789631     -1.45154621
    O      0.08447916     -2.21311623     -0.44416097
    S     -0.18548650     -0.78785156      0.30468157
    C     -1.43085256     -0.04052476     -0.79637975
    O     -0.76298975     -1.12115687      1.61491192
    O      1.02522035      0.06361927      0.21382265
    C     -1.37989377     -0.39792913     -2.16135569
    C     -2.38018650      0.91842409     -0.38222257
    N     -0.53332401     -1.29027917     -2.79930322
    C     -2.27639625      0.17675842     -3.09788466
    C     -3.29969706      1.42373430     -1.35151454
    C     -2.48175087      1.43849915      1.00700873
    C     -0.88037795     -1.28097063     -4.08834159
    N     -1.93287911     -0.40579653     -4.31021453
    C     -3.24090917      1.11280590     -2.71113416
    H     -4.05961629      2.12626605     -0.99854017
    C     -3.75420527      1.47559138      1.64649132
    C     -1.33969930      1.93945019      1.66204480
    C     -0.24512751     -2.07983123     -5.13675211
    H     -2.33121827     -0.17595536     -5.21577124
    H     -3.91956999      1.58602742     -3.42694690
    H     -4.61645045      1.06206094      1.11419081
    C     -3.91903774      1.97056905      2.94344982
    H     -0.36670947      1.95574369      1.16340233
    C     -1.51182758      2.40891182      2.96553804
    C     -0.84077200     -2.24999247     -6.40483010
    C      0.99723234     -2.69316452     -4.86647398
    H     -4.90062350      1.99285771      3.42307843
    C     -2.78144211      2.44241277      3.62064234
    N     -0.62408572      2.92018539      3.90122695
    H     -1.82304070     -1.81990219     -6.63027976
    C     -0.17157542     -2.98007509     -7.39392580
    H      1.44820464     -2.55208919     -3.88022211
    C      1.65273854     -3.46902534     -5.83582304
    N     -2.65614408      2.97135967      4.90038512
    H      0.38382805      2.99483070      3.79046639
    C     -1.35197257      3.22838465      5.04059868
    H     -0.63450615     -3.11145303     -8.37571039
    C      1.08583007     -3.54029337     -7.12838316
    C      2.92761939     -4.20766077     -5.50264214
    C     -0.70659580      3.78740775      6.26721394
    H      1.63568705     -4.04164808     -7.93284246
    H      3.64038164     -4.17853863     -6.34272719
    H      3.42108496     -3.78033537     -4.61616612
    H      2.71783836     -5.26980305     -5.28766612
    H     -0.25246452      4.77532855      6.07211583
    H     -1.47405974      3.90308166      7.04433211
    H      0.08635938      3.12097682      6.64711907
    C      3.29531256     -1.34645663      2.82474911
    C      3.38364489      0.17184363      2.76604887
    O      3.50880568      0.55547364      1.39084678
    C      2.16936015      0.88166154      3.40437878
    C      2.02062900      0.60906379      4.89352065
    O      2.28277683      2.29938958      3.21935751
    H      4.12682469     -1.79613927      2.27167037
    H      2.37317232     -1.70195896      2.35398328
    H      3.33291860     -1.71183884      3.85380676
    H      4.30815993      0.50177560      3.25314007
    H      2.61342084      0.70018475      1.03806260
    H      1.25094055      0.58325627      2.88627287
    H      2.93401609      0.88254042      5.43340355
    H      1.79906193     -0.44309346      5.08905365
    H      1.21188398      1.21669614      5.31403038
    H      3.22929870      2.52760332      3.23471457
