64
Energy:    -63.53256694
    H      0.16904432     -2.00641044     -1.41784080
    O      0.17893256     -2.16136228     -0.40660683
    S     -0.10744992     -0.72972209      0.32374749
    C     -1.41720373     -0.04479153     -0.74264132
    O     -0.62349099     -1.05314746      1.66180714
    O      1.07115579      0.15684734      0.16898234
    C     -1.40714614     -0.42909931     -2.10120688
    C     -2.38006241      0.89270988     -0.31097214
    N     -0.55760780     -1.30795293     -2.75377635
    C     -2.35667464      0.09761533     -3.01336713
    C     -3.35161393      1.34869150     -1.25359264
    C     -2.44491671      1.43851234      1.07056707
    C     -0.95384572     -1.33657184     -4.02826820
    N     -2.04140916     -0.49938212     -4.22634682
    C     -3.33501251      1.01118293     -2.60803362
    H     -4.11946542      2.03455256     -0.88532957
    C     -3.69250859      1.44951257      1.75820615
    C     -1.29517784      1.98838016      1.67061034
    C     -0.33404683     -2.13720854     -5.08454288
    H     -2.48122201     -0.30114311     -5.12010291
    H     -4.05529281      1.44791736     -3.30614989
    H     -4.56087702      0.99828021      1.26816165
    C     -3.82328335      1.96632715      3.05051983
    H     -0.34299134      2.02439025      1.13426797
    C     -1.43217655      2.47960761      2.97024257
    C     -0.97204809     -2.35245211     -6.32486284
    C      0.93665088     -2.70582469     -4.85068611
    H     -4.78601163      1.96820468      3.56743543
    C     -2.67622001      2.48743621      3.67344922
    N     -0.52602327      3.03779928      3.86035958
    H     -1.97542485     -1.95792618     -6.52041684
    C     -0.31826673     -3.08205590     -7.32456441
    H      1.42030339     -2.53007445     -3.88571818
    C      1.57897260     -3.48118399     -5.82921907
    N     -2.51896479      3.04684671      4.93660270
    H      0.47402520      3.14137149      3.70901279
    C     -1.21923355      3.34715756      5.02084696
    H     -0.81400084     -3.24839303     -8.28479649
    C      0.96558481     -3.59722677     -7.09707770
    C      2.88854911     -4.17267938     -5.53129879
    C     -0.54553522      3.95166108      6.21009423
    H      1.49995249     -4.09808378     -7.91221414
    H      3.56735868     -4.13912255     -6.39888884
    H      3.40170633     -3.71166131     -4.67334366
    H      2.72108763     -5.23606433     -5.28729448
    H     -0.13090165      4.94888622      5.97791539
    H     -1.28600021      4.05977325      7.01403288
    H      0.28220078      3.31833175      6.57201008
    C      3.22850694     -1.38644503      2.73567947
    C      3.38192803      0.12649919      2.67286413
    O      3.54567680      0.49848473      1.29851661
    C      2.18847634      0.88974837      3.28842708
    C      2.00401438      0.63018857      4.77590027
    O      2.36476793      2.30059939      3.10009313
    H      4.04918855     -1.87325594      2.19807381
    H      2.29997768     -1.70474240      2.25105055
    H      3.23379029     -1.74858647      3.76655467
    H      4.31148110      0.41922036      3.17394935
    H      2.66310347      0.67933571      0.93045515
    H      1.26685314      0.62813246      2.75631638
    H      2.91919971      0.86720607      5.32979334
    H      1.73497433     -0.41080805      4.97161301
    H      1.21492535      1.27326565      5.18075130
    H      3.31971765      2.48870208      3.13024950
