64
Energy:    -63.12283555
    H     -1.87848652      1.34796750      1.05998841
    O     -1.82242092      1.41597574      0.04070753
    S     -0.70422722      0.34348192     -0.47351601
    C     -1.07869605     -1.09224650      0.58489175
    O     -1.02501726      0.06673235     -1.88128354
    O      0.65066022      0.80936329     -0.09101952
    C     -1.61825808     -0.82640622      1.86227023
    C     -0.79348661     -2.42960912      0.23494774
    N     -1.95866437      0.39071390      2.43032672
    C     -1.88954104     -1.88055010      2.77125605
    C     -1.13952012     -3.46061202      1.16104645
    C     -0.15082324     -2.83321586     -1.04366182
    C     -2.42704157      0.11776523      3.65027541
    N     -2.40246217     -1.24695729      3.89490638
    C     -1.63694874     -3.21621906      2.44227042
    H     -0.95768598     -4.49255369      0.84855369
    C     -0.72906155     -3.88286810     -1.81393751
    C      1.04726304     -2.22020372     -1.45972837
    C     -2.90448241      1.11307955      4.61063245
    H     -2.64667961     -1.69584513      4.77262590
    H     -1.81383983     -4.03690001      3.14376834
    H     -1.66928981     -4.32432032     -1.46910602
    C     -0.16255017     -4.32152456     -3.01432051
    H      1.52237249     -1.44409999     -0.85346688
    C      1.59090011     -2.64957587     -2.67184029
    C     -3.65420296      0.74721698      5.74897892
    C     -2.60274411      2.47386526      4.38724436
    H     -0.61646431     -5.12735014     -3.59626388
    C      1.01481411     -3.69494507     -3.45767307
    N      2.70808220     -2.24942069     -3.39071442
    H     -3.93824633     -0.29591060      5.92747599
    C     -4.04535301      1.72829875      6.66747508
    H     -2.01997778      2.74334197      3.50195531
    C     -3.03358406      3.47105083      5.27678576
    N      1.77366551     -3.92067705     -4.60065847
    H      3.33148808     -1.48343918     -3.14912087
    C      2.76613033     -3.02762148     -4.53701627
    H     -4.62655264      1.44340151      7.54867117
    C     -3.69420287      3.06956635      6.45981957
    C     -2.79774940      4.93205093      4.97384401
    C      3.84089306     -2.85311761     -5.56075280
    H     -3.93662126      3.81691739      7.22372647
    H     -2.53682538      5.49451681      5.88498165
    H     -1.98694878      5.06599825      4.24130359
    H     -3.70718639      5.39445272      4.55256269
    H      4.83900311     -3.07523343     -5.14274934
    H      3.64819087     -3.54522461     -6.39150412
    H      3.86190042     -1.82258914     -5.95420644
    C      1.80477123      3.43929625     -2.39128790
    C      2.96696319      2.46749053     -2.24504325
    O      3.22660140      2.29469467     -0.84620531
    C      2.70686949      1.09667737     -2.90762649
    C      2.52082648      1.17666739     -4.41526159
    O      3.80317349      0.21162294     -2.63958697
    H      2.00052923      4.35295749     -1.81995179
    H      0.88224420      3.00713146     -1.99063535
    H      1.64272221      3.71798519     -3.43529488
    H      3.87371770      2.91887207     -2.66324413
    H      2.69586634      1.54089125     -0.53441581
    H      1.82486908      0.62817839     -2.45645248
    H      3.38289871      1.65854104     -4.88978055
    H      1.61817580      1.73318940     -4.67958148
    H      2.44554364      0.17160793     -4.84456566
    H      4.61470679      0.74767597     -2.59181826
