64
Energy:    -63.07494678
    H      0.20320326     -2.00719738     -1.43755911
    O      0.19434242     -2.16472434     -0.42671356
    S     -0.12467968     -0.73870014      0.30109540
    C     -1.42077112     -0.06717512     -0.79022083
    O     -0.66390669     -1.07207140      1.62752061
    O      1.04573474      0.16279833      0.17264470
    C     -1.37816835     -0.44768693     -2.14922406
    C     -2.40382917      0.85717885     -0.37608245
    N     -0.50461134     -1.31420820     -2.78639361
    C     -2.31532415      0.06967937     -3.07935314
    C     -3.36149999      1.30362690     -1.33728781
    C     -2.50368956      1.39843271      1.00515944
    C     -0.87432671     -1.34431291     -4.06879653
    N     -1.96793377     -0.52011821     -4.28706864
    C     -3.31302117      0.96998047     -2.69191981
    H     -4.14518329      1.97894385     -0.98315999
    C     -3.76511797      1.39215023      1.66713595
    C     -1.37337939      1.96087661      1.62994883
    C     -0.22316279     -2.13438473     -5.11409938
    H     -2.39181394     -0.32494274     -5.18915851
    H     -4.02425171      1.39963716     -3.40357511
    H     -4.61761264      0.93152110      1.15832199
    C     -3.92869574      1.90384187      2.95775130
    H     -0.41094887      2.01010452      1.11330282
    C     -1.54301095      2.44688653      2.92769168
    C     -0.83295162     -2.35418257     -6.36774028
    C      1.04945708     -2.68785696     -4.85565566
    H     -4.90173873      1.89242014      3.45485077
    C     -2.80117077      2.43743486      3.60529741
    N     -0.66224985      3.01386186      3.83752620
    H     -1.83694656     -1.97158112     -6.58283862
    C     -0.14985417     -3.07295824     -7.35561396
    H      1.51106094     -2.50872148     -3.88056420
    C      1.72123404     -3.45258302     -5.82271087
    N     -2.67673425      2.99536155      4.87275919
    H      0.33931914      3.13020706      3.70693776
    C     -1.38282921      3.31150690      4.98432471
    H     -0.62374997     -3.24284356     -8.32619511
    C      1.13538179     -3.57280961     -7.10313998
    C      3.03293904     -4.12861518     -5.49971937
    C     -0.74114696      3.92111209      6.18857900
    H      1.69248409     -4.06482920     -7.90837768
    H      3.72887281     -4.08433572     -6.35314571
    H      3.52268163     -3.66358284     -4.63032180
    H      2.87375255     -5.19464112     -5.26177536
    H     -0.33427867      4.92401063      5.96735802
    H     -1.49917789      4.01789786      6.97744884
    H      0.08682437      3.29710700      6.56582842
    C      3.35442039     -1.31412082      2.92339216
    C      3.40156344      0.20340661      2.81675241
    O      3.60039533      0.54472341      1.43907802
    C      2.12971297      0.89551324      3.35450588
    C      1.89704082      0.66816840      4.84049107
    O      2.21266671      2.30915262      3.12692868
    H      4.23147089     -1.75558002      2.43819200
    H      2.47407958     -1.71399060      2.41011913
    H      3.33889094     -1.64362330      3.96505667
    H      4.28401301      0.57835207      3.34735551
    H      2.72473373      0.64931708      1.02750916
    H      1.25434038      0.55121921      2.79222619
    H      2.76677555      0.98812760      5.42506495
    H      1.69479653     -0.38334096      5.05908959
    H      1.04627911      1.26370811      5.18927606
    H      3.14930036      2.56745159      3.19189063
