64
Energy:    -63.04514955
    H     -0.00868860     -2.11203300     -1.35527945
    O      0.00595282     -2.20689311     -0.33670731
    S     -0.14502481     -0.71511442      0.30891493
    C     -1.41069045      0.01495212     -0.78051764
    O     -0.66282576     -0.91303650      1.67053713
    O      1.10157446      0.05642018      0.08577009
    C     -1.45733937     -0.44885703     -2.11325878
    C     -2.28279221      1.05550882     -0.39448103
    N     -0.69707590     -1.43450183     -2.72190465
    C     -2.37481350      0.10215117     -3.04368889
    C     -3.22874364      1.53624686     -1.35074032
    C     -2.27663459      1.68599326      0.95207326
    C     -1.11684603     -1.50474686     -3.98721555
    N     -2.13285327     -0.59069178     -4.22205296
    C     -3.26483238      1.11866606     -2.68228899
    H     -3.92903034      2.30605570     -1.01516335
    C     -3.50641399      1.84471302      1.65343241
    C     -1.07395889      2.16999171      1.50309292
    C     -0.58598416     -2.41690398     -5.00064589
    H     -2.57005069     -0.40895578     -5.12058757
    H     -3.95775409      1.57325862     -3.39651032
    H     -4.41846391      1.44123633      1.20266695
    C     -3.56996864      2.44671449      2.91352330
    H     -0.13180661      2.09233249      0.95360487
    C     -1.14575373      2.74751386      2.77212037
    C     -1.26182598     -2.65000686     -6.21747369
    C      0.63587413     -3.07741790     -4.74871397
    H     -4.51975522      2.56180368      3.44145410
    C     -2.37199095      2.90370031      3.48916504
    N     -0.17989978      3.27790353      3.61521761
    H     -2.23144903     -2.18326643     -6.42397187
    C     -0.69008392     -3.49106865     -7.17918107
    H      1.14971728     -2.88672896     -3.80236628
    C      1.19269556     -3.96174567     -5.68637078
    N     -2.14550366      3.52164911      4.71393800
    H      0.82248823      3.28621537      3.44527881
    C     -0.82370219      3.71394518      4.76341626
    H     -1.21508121     -3.67107900     -8.12122147
    C      0.54929714     -4.09993449     -6.93701794
    C      2.44400408     -4.74399353     -5.36352674
    C     -0.08019986      4.32809127      5.90518325
    H      1.02474049     -4.69229526     -7.72690169
    H      3.10772632     -4.82034987     -6.24003315
    H      3.00953003     -4.27848012     -4.54167963
    H      2.19133971     -5.77272884     -5.05331168
    H      0.41330798      5.27054826      5.60767553
    H     -0.79446297      4.54684526      6.71033473
    H      0.69714520      3.64878785      6.29443576
    C      3.07055238     -1.42614769      2.88384197
    C      3.41561257      0.05576876      2.84722080
    O      3.72798429      0.40454270      1.49267341
    C      2.28342907      0.96210993      3.37872829
    C      1.95601242      0.72745497      4.84559890
    O      2.64789399      2.33989082      3.21768750
    H      3.86249468     -2.01164050      2.40472972
    H      2.14896227     -1.62584676      2.32784111
    H      2.95262977     -1.78623720      3.90868723
    H      4.33378304      0.22996217      3.41946258
    H      2.90523402      0.69432088      1.06113824
    H      1.37932793      0.81779068      2.77644341
    H      2.84903068      0.84817055      5.46888466
    H      1.54531817     -0.27178089      5.01057748
    H      1.22484486      1.46405688      5.19620641
    H      3.61379675      2.40717004      3.32125563
