64
Energy:    -62.87246651
    H     -1.02544455      1.94659014     -1.44151080
    O     -0.04172672      2.08905404     -1.19921908
    S      0.50832594      0.71765968     -0.50514013
    C     -0.26485808     -0.54873428     -1.56353646
    O      1.96862786      0.73517385     -0.67401160
    O     -0.08851609      0.56393650      0.84364368
    C     -1.50117985     -0.22023537     -2.16110733
    C      0.25667916     -1.84625713     -1.75531070
    N     -2.21194505      0.96766538     -2.10068672
    C     -2.19871989     -1.16480999     -2.95627125
    C     -0.45308819     -2.74167746     -2.61252581
    C      1.50447076     -2.34130431     -1.11601310
    C     -3.31537634      0.78241822     -2.82888716
    N     -3.34461759     -0.49616771     -3.36487128
    C     -1.69444553     -2.44990644     -3.18050436
    H     -0.00478142     -3.72335762     -2.78843515
    C      2.48819557     -2.99010696     -1.91650958
    C      1.68563986     -2.21787825      0.27547882
    C     -4.36148586      1.78314851     -3.04120709
    H     -4.10915508     -0.89660495     -3.90028369
    H     -2.23520068     -3.19833293     -3.76731664
    H      2.32184193     -3.05269296     -2.99642970
    C      3.67303229     -3.49465363     -1.37257153
    H      0.91701982     -1.76081574      0.90471335
    C      2.88304324     -2.70366384      0.80401880
    C     -5.33944487      1.63353014     -4.04767592
    C     -4.38824110      2.92598172     -2.21301484
    H      4.42011080     -3.98970940     -1.99774710
    C      3.88113241     -3.34785046      0.00963438
    N      3.40362011     -2.71150651      2.09007409
    H     -5.32027776      0.77776002     -4.73174253
    C     -6.35169382      2.59112518     -4.18003454
    H     -3.62529735      3.02873151     -1.43627143
    C     -5.37023925      3.91699226     -2.37069725
    N      4.95522798     -3.74071629      0.80033100
    H      2.97828303     -2.28597986      2.90967486
    C      4.64423236     -3.32844868      2.03317411
    H     -7.10837840      2.47410617     -4.96054784
    C     -6.39625230      3.69489021     -3.31681770
    C     -5.32736731      5.18546679     -1.55152244
    C      5.50401875     -3.49435080      3.24430864
    H     -7.23648050      4.39573969     -3.37748546
    H     -6.33834101      5.50236337     -1.24799363
    H     -4.71813852      5.05839773     -0.64342073
    H     -4.88654661      6.01186068     -2.13557659
    H      5.01909347     -4.13669454      4.00096444
    H      6.44889913     -3.96472258      2.94058932
    H      5.72664634     -2.52357911      3.71894039
    C      1.67128961      2.46828554      3.56461021
    C      1.37406624      1.07179862      4.09183555
    O      0.02503168      0.74232326      3.73747735
    C      2.34043562     -0.00564727      3.55235934
    C      3.78688709      0.21244240      3.96971895
    O      1.93253181     -1.30016353      4.01592286
    H      0.89944940      3.17090404      3.89644290
    H      1.66219981      2.48203368      2.47004483
    H      2.63905310      2.83339081      3.91676071
    H      1.40051629      1.08302718      5.18728766
    H      0.04340315      0.29638471      2.87265754
    H      2.27910813     -0.04467259      2.45888325
    H      3.87338847      0.27335012      5.06029071
    H      4.19730207      1.12657056      3.53349738
    H      4.40777357     -0.63190330      3.65082350
    H      1.53666284     -1.18995820      4.89873855
