64
Energy:    -65.84850612
    H     -1.29773740     -1.52871257     -1.53567644
    O     -1.37203776     -1.72735078     -0.53481465
    S     -0.61006010     -0.53056458      0.27272410
    C     -1.14712178      0.93172102     -0.67334967
    O     -1.18047499     -0.52849978      1.62768852
    O      0.85520019     -0.64695014      0.07641902
    C     -1.42669411      0.74368132     -2.04447125
    C     -1.22476757      2.23578581     -0.13881235
    N     -1.39873829     -0.42450697     -2.78911922
    C     -1.79889058      1.83676573     -2.86769980
    C     -1.66134256      3.29342268     -0.99389803
    C     -0.87723828      2.57835233      1.26569062
    C     -1.73994066     -0.08438325     -4.03412918
    N     -1.99110721      1.27646254     -4.12318023
    C     -1.90463004      3.13540971     -2.35938004
    H     -1.76409755      4.28573992     -0.54627441
    C     -1.78105389      3.36564912      2.03558353
    C      0.35764361      2.17394957      1.80959421
    C     -1.83899908     -1.01063740     -5.16245833
    H     -2.20443120      1.78480928     -4.97618109
    H     -2.16220106      3.99263339     -2.98845215
    H     -2.73859379      3.64725093      1.58654483
    C     -1.50382557      3.73746705      3.35435943
    H      1.07693517      1.60687669      1.21237817
    C      0.61327829      2.53038407      3.13500825
    C     -2.48390333     -0.65035889     -6.36498355
    C     -1.27125499     -2.29712638     -5.03877020
    H     -2.20599887      4.34114371      3.93451298
    C     -0.28968623      3.31177612      3.92004744
    N      1.67923790      2.27238970      3.98481354
    H     -2.96891924      0.32592786     -6.47580206
    C     -2.50893262     -1.55090694     -7.43621731
    H     -0.77340587     -2.56280144     -4.10200235
    C     -1.33496670     -3.22558007     -6.09005539
    N      0.22926130      3.52541494      5.19216296
    H      2.48772063      1.69414303      3.77099947
    C      1.39711696      2.87532679      5.20130383
    H     -3.00934465     -1.27055986     -8.36705527
    C     -1.89577570     -2.80604625     -7.31751645
    C     -0.81923712     -4.63399074     -5.91029059
    C      2.32805232      2.78380009      6.36688748
    H     -1.85225472     -3.47145389     -8.18710980
    H     -0.31178830     -4.99538976     -6.81941514
    H     -0.11080996     -4.69963266     -5.07018518
    H     -1.65026211     -5.32951900     -5.70051231
    H      3.29853746      3.26461069      6.14948059
    H      1.86829906      3.29620468      7.22266927
    H      2.52640821      1.73481643      6.64531921
    C      1.81208342     -3.33482464      2.52020241
    C      2.83312239     -2.20618499      2.50854224
    O      3.12235843     -1.88456523      1.14218898
    C      2.35888001     -0.94274589      3.25994747
    C      2.12521078     -1.17180808      4.74551241
    O      3.33166154      0.10143261      3.11699170
    H      2.15555939     -4.16314278      1.89136514
    H      0.85539414     -2.99953611      2.10707747
    H      1.64838693     -3.71840821      3.53012572
    H      3.77616483     -2.56403243      2.93686123
    H      2.50514429     -1.18614250      0.86225257
    H      1.43928384     -0.56192063      2.80137468
    H      3.02600414     -1.57046578      5.22528564
    H      1.29861414     -1.86513822      4.91984345
    H      1.89398010     -0.22520090      5.24609330
    H      4.21098438     -0.31426010      3.06996058
