64
Energy:    -65.83356125
    H      0.52774246      1.82697054     -1.66224243
    O      1.31447406      1.24013615     -1.37348511
    S      0.72618136      0.03169524     -0.44687394
    C     -0.78883040     -0.40800255     -1.35965827
    O      1.72046863     -1.04931824     -0.51097307
    O      0.28926305      0.57158336      0.86335207
    C     -1.42379594      0.62250434     -2.08654775
    C     -1.39552469     -1.68184713     -1.31983329
    N     -1.03367126      1.94156276     -2.25338184
    C     -2.63620638      0.38195010     -2.78171938
    C     -2.58399235     -1.89024007     -2.08434751
    C     -0.87212648     -2.82519498     -0.52638072
    C     -1.96211443      2.51311529     -3.02375446
    N     -2.94957786      1.60164684     -3.36589075
    C     -3.24747605     -0.87597398     -2.77698861
    H     -3.00837305     -2.89796378     -2.08075013
    C     -0.72681854     -4.09801356     -1.14949585
    C     -0.57541187     -2.66272861      0.84105159
    C     -1.95298905      3.91091700     -3.45613521
    H     -3.79379309      1.81186854     -3.88995323
    H     -4.19742502     -1.06868751     -3.28430060
    H     -0.95028702     -4.18319195     -2.21749608
    C     -0.25883383     -5.21626547     -0.45323658
    H     -0.72520812     -1.70084101      1.33899971
    C     -0.08609007     -3.78002927      1.52025732
    C     -2.78684039      4.37198207     -4.49723077
    C     -1.08536218      4.81761313     -2.80975162
    H     -0.15121980     -6.18707981     -0.94312406
    C      0.07271538     -5.05933586      0.90352361
    N      0.33873119     -3.96900110      2.82747442
    H     -3.44095078      3.68390123     -5.04435174
    C     -2.78149089      5.72856099     -4.84193356
    H     -0.44557200      4.44732874     -2.00381800
    C     -1.03654030      6.17045927     -3.18218920
    N      0.56200307     -5.98464291      1.81874513
    H      0.41037015     -3.24979779      3.54255795
    C      0.72634731     -5.29463638      2.95164714
    H     -3.42769699      6.08420010     -5.64902989
    C     -1.95243859      6.62761685     -4.15651628
    C     -0.03024824      7.10852460     -2.55823189
    C      1.26136774     -5.84806679      4.23269004
    H     -2.01383493      7.69861339     -4.38023684
    H     -0.46668294      8.10440537     -2.37832286
    H      0.34488773      6.71767157     -1.59986770
    H      0.83871983      7.24717428     -3.22459499
    H      0.50745659     -5.80562672      5.03897958
    H      1.54062018     -6.89782957      4.07048594
    H      2.15125547     -5.29211146      4.57364386
    C      3.51917830      0.87696647      2.75727664
    C      2.40242217      0.34835857      3.64604739
    O      1.23992224      1.15686343      3.42484202
    C      2.06849850     -1.13817730      3.39207873
    C      3.22159520     -2.08083714      3.70148852
    O      0.94570141     -1.52797789      4.19484345
    H      3.64477589      1.95461595      2.90700920
    H      3.27824586      0.73044636      1.69952978
    H      4.47201475      0.38889286      2.97582836
    H      2.67309829      0.49640349      4.69755019
    H      0.72154897      0.74628330      2.71082163
    H      1.75575637     -1.27526735      2.35074656
    H      3.56573737     -1.95077859      4.73356891
    H      4.06577001     -1.91775573      3.02685281
    H      2.89879280     -3.12330717      3.60573442
    H      0.98176119     -1.02030452      5.02501720
