64
Energy:    -65.82140718
    H      0.07748351     -2.05828853     -1.45608806
    O      0.06966412     -2.22173460     -0.44617408
    S     -0.15888820     -0.78449453      0.29350883
    C     -1.42479627     -0.03187904     -0.78018418
    O     -0.70317362     -1.09488842      1.62343929
    O      1.06043491      0.04859927      0.15832433
    C     -1.41795803     -0.40520347     -2.14182881
    C     -2.34844744      0.94504543     -0.35026431
    N     -0.60250810     -1.31657907     -2.79327484
    C     -2.33286294      0.17167708     -3.05901301
    C     -3.28825221      1.45252116     -1.29873696
    C     -2.40290921      1.48200486      1.03518345
    C     -0.98620661     -1.31674025     -4.07191804
    N     -2.03236880     -0.42921692     -4.27381656
    C     -3.27278931      1.12561357     -2.65578903
    H     -4.02790275      2.16969233     -0.93240160
    C     -3.65587150      1.54433797      1.71020500
    C     -1.23569768      1.97394826      1.65155585
    C     -0.39243512     -2.13622262     -5.12869146
    H     -2.45326870     -0.20386660     -5.17025089
    H     -3.96504667      1.60041241     -3.35739634
    H     -4.53868532      1.13719219      1.20752214
    C     -3.77656309      2.05607295      3.00551765
    H     -0.27726876      1.97082592      1.12522587
    C     -1.36384874      2.46034819      2.95390351
    C     -1.02649177     -2.31205377     -6.37722042
    C      0.84851645     -2.76410780     -4.88685391
    H     -4.74359233      2.09768093      3.51264112
    C     -2.61357472      2.51922478      3.64450000
    N     -0.44262949      2.96936629      3.85792545
    H     -2.00874623     -1.87058047     -6.57954315
    C     -0.39613512     -3.06258945     -7.37647099
    H      1.32949154     -2.61844925     -3.91555707
    C      1.46511940     -3.55999877     -5.86544697
    N     -2.44430439      3.06060393      4.91394168
    H      0.56263531      3.02842402      3.71762272
    C     -1.13320305      3.30060186      5.01393805
    H     -0.88879973     -3.19833216     -8.34307406
    C      0.86045700     -3.63763526     -7.14041048
    C      2.73863689     -4.31292526     -5.56021280
    C     -0.44522281      3.86406044      6.21510440
    H      1.38000646     -4.15571952     -7.95435830
    H      3.42736122     -4.30333494     -6.42055449
    H      3.26320243     -3.88278295     -4.69316978
    H      2.52036107     -5.36950723     -5.32706221
    H      0.01681737      4.84317933      5.99571643
    H     -1.18841338      3.99931696      7.01239196
    H      0.34895659      3.19070420      6.57994198
    C      3.32271521     -1.33425946      2.81899609
    C      3.39604824      0.18484294      2.76039425
    O      3.51859296      0.56972598      1.38530667
    C      2.17423636      0.88257826      3.39768158
    C      2.02692341      0.60848584      4.88669006
    O      2.27375861      2.30136484      3.21277905
    H      4.15912169     -1.77566735      2.26663184
    H      2.40455146     -1.69887157      2.34742603
    H      3.36304841     -1.69927468      3.84808070
    H      4.31682592      0.52390912      3.24829136
    H      2.62212411      0.70556516      1.03174859
    H      1.25926828      0.57509834      2.87877550
    H      2.93708740      0.89098797      5.42736840
    H      1.81562435     -0.44581988      5.08201582
    H      1.21183258      1.20806435      5.30650734
    H      3.21795882      2.53894669      3.22895981
