64
Energy:    -65.64414788
    H      0.09827697     -2.04489134     -1.46558126
    O      0.08518962     -2.21693759     -0.45715139
    S     -0.16183759     -0.78820133      0.29299277
    C     -1.42749953     -0.03839021     -0.78295014
    O     -0.71213032     -1.11490067      1.61653025
    O      1.05048585      0.05735845      0.17311976
    C     -1.40797914     -0.40010670     -2.14760179
    C     -2.36316624      0.92619394     -0.35115245
    N     -0.57962987     -1.29828453     -2.80110011
    C     -2.32206443      0.17593845     -3.06612728
    C     -3.30128669      1.43287179     -1.30171680
    C     -2.43200512      1.45088633      1.03834966
    C     -0.95468614     -1.29121704     -4.08228544
    N     -2.00775855     -0.41182841     -4.28385465
    C     -3.27360935      1.11761018     -2.66132781
    H     -4.05009562      2.13997958     -0.93442570
    C     -3.69001747      1.49580318      1.70531396
    C     -1.27364756      1.94848067      1.66677121
    C     -0.34613310     -2.09615195     -5.14182732
    H     -2.42470817     -0.18284686     -5.18121437
    H     -3.96555515      1.59183835     -3.36362806
    H     -4.56555923      1.08469472      1.19322562
    C     -3.82423739      1.99541672      3.00402306
    H     -0.31170714      1.95876147      1.14697901
    C     -1.41513577      2.42263201      2.97225143
    C     -0.97008282     -2.26733358     -6.39608112
    C      0.89900662     -2.71444136     -4.89681454
    H     -4.79500983      2.02370060      3.50487425
    C     -2.66998449      2.46399113      3.65478281
    N     -0.50485259      2.93256960      3.88677217
    H     -1.95505717     -1.83335906     -6.60138247
    C     -0.32598256     -3.00347198     -7.39727546
    H      1.37203647     -2.57251543     -3.92107339
    C      1.52964115     -3.49623461     -5.87782699
    N     -2.51436615      2.99617362      4.92984781
    H      0.50073533      3.00219864      3.75382579
    C     -1.20628159      3.24755310      5.04078983
    H     -0.81082594     -3.13563173     -8.36831958
    C      0.93433904     -3.56873127     -7.15748930
    C      2.80809255     -4.23978732     -5.57024875
    C     -0.53173548      3.80723557      6.25130463
    H      1.46420655     -4.07503866     -7.97219615
    H      3.50247740     -4.21648953     -6.42576490
    H      3.32273891     -3.81211146     -4.69607058
    H      2.59818964     -5.30029579     -5.34746734
    H     -0.07744928      4.79244757      6.04329654
    H     -1.28151929      3.92879758      7.04461473
    H      0.26626052      3.13826555      6.61588315
    C      3.34267273     -1.33236467      2.82576693
    C      3.40000698      0.18727436      2.76336513
    O      3.52612723      0.56972364      1.38792184
    C      2.16721003      0.87354794      3.39188263
    C      2.01449338      0.60192486      4.88079919
    O      2.25251851      2.29281666      3.20360691
    H      4.18686165     -1.76624334      2.27930799
    H      2.43114161     -1.70811259      2.35008897
    H      3.38114748     -1.69413298      3.85606852
    H      4.31433465      0.53755032      3.25545522
    H      2.63024964      0.69494965      1.02898759
    H      1.25852623      0.55483474      2.86872907
    H      2.91851958      0.89566916      5.42576699
    H      1.81344152     -0.45405991      5.07786342
    H      1.19066318      1.19383435      5.29439436
    H      3.19400574      2.54058746      3.22440193
