64
Energy:    -74.84385949
    H      1.73751680     -3.40320023      1.37507205
    O      0.77466357     -3.57614115      1.46352024
    S      0.14655406     -2.21360948      2.22124306
    C     -0.45524592     -1.26270532      0.80459665
    O      1.28988257     -1.52452329      2.85344093
    O     -0.99269640     -2.72204071      3.00447487
    C     -0.65189206     -1.96483234     -0.39656818
    C     -0.70789413      0.13980611      0.94756714
    H     -0.44671151     -3.03398825     -0.45658136
    C     -1.11418823     -1.21709132     -1.48084519
    C     -1.12045596      0.85851369     -0.18960178
    C     -0.55650542      0.87590197      2.23511417
    N     -1.41815328     -1.54679346     -2.78997000
    C     -1.37759082      0.18085470     -1.38957093
    H     -1.27959172      1.93725194     -0.11643350
    C      0.29170019      2.01804036      2.28279158
    C     -1.28784324      0.48091953      3.37148993
    H     -1.37835666     -2.47703461     -3.19692531
    C     -1.84141849     -0.38305178     -3.42494863
    N     -1.87767192      0.65866708     -2.58670552
    H      0.84061976      2.29141771      1.37656747
    C      0.43849045      2.78400623      3.44153008
    H     -1.97514627     -0.36818945      3.33212633
    C     -1.08879524      1.22266520      4.53995013
    C     -2.19853597     -0.32961052     -4.84604649
    H      1.09385308      3.65847638      3.46786981
    C     -0.28310163      2.39960045      4.58519657
    N     -1.55169470      1.06602699      5.83831008
    C     -2.08780663     -1.45166087     -5.69473904
    C     -2.67014722      0.89250899     -5.37462640
    N     -0.35874466      2.99605477      5.84003536
    H     -2.11815714      0.29558977      6.18412476
    C     -1.03011430      2.10622551      6.59447336
    H     -1.72830290     -2.41486742     -5.31948552
    C     -2.44292546     -1.34199860     -7.04535142
    H     -2.74853023      1.74768072     -4.69773467
    C     -3.03051891      1.01190675     -6.72603101
    C     -1.21813580      2.18405708      8.07432443
    H     -2.35675184     -2.21333403     -7.69988154
    C     -2.90697960     -0.12166928     -7.55894182
    C     -3.53846840      2.32665853     -7.27266077
    H     -0.76656801      1.31573448      8.58608158
    H     -0.72981461      3.09691104      8.44164046
    H     -2.28707868      2.21785399      8.34702369
    H     -3.17740820     -0.04803198     -8.61745017
    H     -2.70730414      2.92190781     -7.69292768
    H     -4.27124008      2.17084802     -8.08144611
    H     -4.01309857      2.93390026     -6.48631627
    C      4.38823619      0.72138185      0.95751559
    C      4.35406640     -0.74907399      1.34876494
    O      3.95748944     -0.83261922      2.72345215
    C      3.40407525     -1.59469666      0.47227585
    C      3.81220244     -1.64401661     -0.99229703
    O      3.35470431     -2.93988219      0.96733887
    H      4.99522868      1.28930541      1.67063966
    H      3.38331504      1.15484714      0.98172938
    H      4.81232829      0.86232299     -0.03955988
    H      5.36861950     -1.16094979      1.30539080
    H      2.98796379     -0.91256125      2.75067848
    H      2.38218873     -1.20701749      0.55244326
    H      4.83871225     -2.01198764     -1.09913304
    H      3.74143056     -0.65992262     -1.46230805
    H      3.16933762     -2.33808258     -1.54466580
    H      4.22840595     -3.15265934      1.34095944
