64
Energy:    -74.72050477
    H     -1.38115138      3.56483490      1.37170443
    O     -0.40491760      3.64483292      1.44509338
    S      0.10037139      2.23344774      2.20524659
    C      0.58676034      1.21914239      0.78824996
    O     -1.09443047      1.66212614      2.85927577
    O      1.29477232      2.63521887      2.96802596
    C      0.83217443      1.89067080     -0.42140723
    C      0.70538683     -0.20015322      0.93937152
    H      0.72994847      2.97417506     -0.48746296
    C      1.20421082      1.09433411     -1.50580928
    C      1.02993246     -0.96317004     -0.19745585
    C      0.50303079     -0.90924912      2.23504434
    N      1.51899527      1.38408813     -2.82181056
    C      1.33321143     -0.32181377     -1.40656709
    H      1.08560594     -2.05168468     -0.11751621
    C     -0.45033066     -1.96400870      2.30425538
    C      1.28579054     -0.57864066      3.35763119
    H      1.56284426      2.31097716     -3.23593493
    C      1.81883812      0.18058746     -3.45294162
    N      1.76714761     -0.85391026     -2.60660448
    H     -1.03641705     -2.18954836      1.40819478
    C     -0.65289884     -2.70417586      3.47132209
    H      2.05094273      0.20001697      3.30145813
    C      1.03368782     -1.28959914      4.53495368
    C      2.14799279      0.08308854     -4.87844475
    H     -1.38889616     -3.51124370      3.51423417
    C      0.11925219     -2.38310500      4.60142488
    N      1.52875936     -1.16923299      5.82528936
    C      2.13313520      1.20464358     -5.73485034
    C      2.49191660     -1.18243248     -5.40338567
    N      0.15579914     -2.97530999      5.86001836
    H      2.17180098     -0.45455372      6.15660795
    C      0.92081130     -2.14905391      6.59742414
    H      1.87359511      2.20059392     -5.36263153
    C      2.45593900      1.05187036     -7.08937869
    H      2.49770625     -2.03643827     -4.72053460
    C      2.81899980     -1.34540720     -6.75869885
    C      1.12244838     -2.23431742      8.07507147
    H      2.44428340      1.92287063     -7.74989642
    C      2.79273667     -0.21103637     -7.59924038
    C      3.18990803     -2.70675370     -7.30142513
    H      0.76418115     -1.32298740      8.58587005
    H      0.55407425     -3.09330364      8.45687578
    H      2.18711477     -2.36902586      8.33291856
    H      3.03906087     -0.31775860     -8.66080938
    H      2.29917162     -3.22208448     -7.70491344
    H      3.92216791     -2.62789712     -8.12175562
    H      3.61554467     -3.35139576     -6.51680798
    C     -3.65396313      1.99990302     -0.94962459
    C     -3.22794430      1.91585830      0.50911749
    O     -3.04059336      3.25160599      0.99357154
    C     -4.24213492      1.16725850      1.40175949
    C     -4.42581011     -0.29336433      1.01859062
    O     -3.81615510      1.21945694      2.77028626
    H     -2.95305030      2.62438192     -1.51377909
    H     -4.63935860      2.46771034     -1.04180417
    H     -3.68383939      1.01280835     -1.41720296
    H     -2.24572911      1.43435613      0.57430936
    H     -3.88585136      3.55504662      1.36850445
    H     -5.21180097      1.67681250      1.36894993
    H     -3.46631553     -0.82237512      1.02612224
    H     -4.87494390     -0.39516567      0.02749258
    H     -5.07107961     -0.80028826      1.74437944
    H     -2.84243911      1.21776652      2.78004849
