64
Energy:    -74.72049188
    H      0.97110067      3.70354698      1.35569059
    O      1.80952544      3.19706948      1.42878262
    S      1.39471814      1.75984800      2.19525984
    C      1.19150199      0.64762992      0.78283528
    O      0.09329943      1.99866438      2.85175820
    O      2.60017023      1.38899797      2.95631273
    C      1.78053412      1.04389378     -0.42979208
    C      0.45704887     -0.57183474      0.94029812
    H      2.33189261      1.98185556     -0.50069002
    C      1.61309099      0.17654367     -1.51060546
    C      0.27048133     -1.38455913     -0.19309176
    C     -0.11885320     -1.02344949      2.23911063
    N      2.03455523      0.22231413     -2.82786738
    C      0.88875783     -1.04663307     -1.40503489
    H     -0.32151359     -2.29927481     -0.10829060
    C     -1.50909984     -1.32003861      2.31296968
    C      0.71215230     -1.20965195      3.36025937
    H      2.61174007      0.94651404     -3.24612229
    C      1.57135205     -0.93117875     -3.45360132
    N      0.92591256     -1.73644114     -2.60265810
    H     -2.11857035     -1.16298818      1.41788820
    C     -2.10369592     -1.79718732      3.48331605
    H      1.78819849     -1.02663997      3.30065887
    C      0.09452852     -1.63408193      4.54072794
    C      1.77744598     -1.20815119     -4.87863450
    H     -3.17277566     -2.02034919      3.52978432
    C     -1.28685559     -1.98488247      4.61202256
    N      0.56964736     -1.82166043      5.83054436
    C      2.41988415     -0.29338741     -5.74003883
    C      1.31393649     -2.43734301     -5.39789977
    N     -1.60074232     -2.48175507      5.87324924
    H      1.51023633     -1.61759932      6.15870962
    C     -0.49490651     -2.25717452      6.60700720
    H      2.79357369      0.66730957     -5.37228559
    C      2.58864813     -0.61119033     -7.09385160
    H      0.82035425     -3.13054151     -4.71124308
    C      1.48019456     -2.76592435     -6.75245156
    C     -0.37758176     -2.43895379      8.08503297
    H      3.08748267      0.09930106     -7.75825140
    C      2.12093105     -1.83403529     -7.59804990
    C      0.98240834     -4.08866233     -7.28907258
    H     -0.13311729     -1.48854230      8.59173616
    H     -1.34030541     -2.80111028      8.47063232
    H      0.40729288     -3.17058841      8.34354522
    H      2.25540979     -2.06865620     -8.65911658
    H     -0.04244299     -3.98635601     -7.69031214
    H      1.62009339     -4.45648216     -8.10970121
    H      0.95202546     -4.85759244     -6.50155918
    C     -1.79361944      3.75719879     -0.95876790
    C     -1.49372766      3.44496183      0.50036096
    O     -0.55851541      4.41986658      0.97885525
    C     -2.75191473      3.43519236      1.39627605
    C     -3.75700266      2.35727519      1.01962394
    O     -2.37251463      3.23309448      2.76458195
    H     -0.86122586      3.85097860     -1.52566344
    H     -2.31877445      4.71305412     -1.05309608
    H     -2.39699046      2.97278933     -1.42193441
    H     -0.97923848      2.47976813      0.56776266
    H     -1.06510561      5.16213299      1.35237760
    H     -3.23972314      4.41589713      1.36113180
    H     -3.28889685      1.36666079      1.02957678
    H     -4.18324725      2.53409932      0.02896316
    H     -4.57504417      2.32680294      1.74763049
    H     -1.58412411      2.66163602      2.77441090
