64
Energy:    -74.72047020
    H     -2.77587543      2.72971529      1.15774287
    O     -1.91986238      3.19552334      1.28055385
    S     -0.94320620      2.11566951      2.12032549
    C     -0.00148760      1.36261914      0.77149258
    O     -1.84991879      1.12196933      2.73036338
    O     -0.06086644      2.97298999      2.93046384
    C      0.03299891      2.05984206     -0.44799086
    C      0.66417736      0.11223620      0.98301723
    H     -0.48903661      3.01038210     -0.56089594
    C      0.76153924      1.46505368     -1.47946881
    C      1.33937361     -0.47178653     -0.10460792
    C      0.67850330     -0.60096846      2.29208823
    N      1.01885636      1.83898310     -2.78670662
    C      1.43879257      0.22101606     -1.31927102
    H      1.81994151     -1.44539999      0.01983204
    C      0.22356440     -1.94851041      2.35011658
    C      1.18954605      0.03091616      3.44177216
    H      0.71550067      2.69997227     -3.23304502
    C      1.81468135      0.84840386     -3.35421112
    N      2.12586775     -0.10847346     -2.47290933
    H     -0.16426898     -2.40222584      1.43304647
    C      0.25843564     -2.69199165      3.53204113
    H      1.58182730      1.05025292      3.39717407
    C      1.16678801     -0.70554064      4.63014056
    C      2.24692693      0.87191986     -4.75511038
    H     -0.09497702     -3.72583580      3.56606717
    C      0.76310055     -2.07299665      4.68901758
    N      1.48787748     -0.37935276      5.93974089
    C      1.84076008      1.88171030     -5.65338024
    C      3.10096176     -0.15635666     -5.21190566
    N      0.95159858     -2.58381628      5.96949866
    H      1.76896200      0.53762578      6.27765042
    C      1.27335389     -1.51025111      6.71491220
    H      1.18146542      2.69486272     -5.33410184
    C      2.28468315      1.85300672     -6.98168646
    H      3.40319499     -0.92706092     -4.49754231
    C      3.55292420     -0.19269846     -6.54037366
    C      1.39612606     -1.48757629      8.20346245
    H      1.96885085      2.63722505     -7.67473232
    C      3.13018073      0.82446967     -7.42391989
    C      4.47106642     -1.29816248     -7.00979155
    H      0.67138053     -0.78966249      8.65893281
    H      1.19479434     -2.49718100      8.58666586
    H      2.40683285     -1.18047508      8.52331653
    H      3.46680160      0.81121721     -8.46579549
    H      3.88851454     -2.13286564     -7.44070216
    H      5.16229983     -0.94328812     -7.79185648
    H      5.06700632     -1.70733923     -6.17925918
    C     -4.07880696      0.35348720     -1.22115863
    C     -3.75011043      0.46701891      0.26058127
    O     -4.14374915      1.77215730      0.70293899
    C     -4.43629532     -0.61340451      1.12523701
    C     -3.99596920     -2.03008337      0.78892178
    O     -4.15621853     -0.37631215      2.51174096
    H     -3.65078708      1.19899803     -1.77018815
    H     -5.16081511      0.38551210     -1.38418557
    H     -3.68153471     -0.56891732     -1.65153365
    H     -2.66379236      0.42081128      0.39703238
    H     -5.06219294      1.71612809      1.01985182
    H     -5.52444043     -0.53603366      1.02070009
    H     -2.90771626     -2.12969555      0.86843248
    H     -4.30184246     -2.31681276     -0.22032932
    H     -4.43053143     -2.74342620      1.49773183
    H     -3.26575531      0.01280620      2.57405592
