64
Energy:    -74.70736099
    H      3.94749917     -0.85111383     -0.43588027
    O      3.93504894      0.10335417     -0.20424731
    S      2.78423270      0.79130568     -1.21790538
    C      1.32951852      0.81485968     -0.14248878
    O      2.58551124     -0.16125219     -2.32914671
    O      3.26595873      2.16549103     -1.44016796
    C      1.55685453      0.69681701      1.23911654
    C      0.02477274      0.95131459     -0.71723092
    H      2.56964841      0.59629789      1.63019127
    C      0.42464668      0.71435119      2.05538178
    C     -1.08700678      0.90835097      0.14416412
    C     -0.21599469      1.13562835     -2.17688584
    N      0.25082111      0.62469146      3.42529119
    C     -0.89452454      0.84520180      1.53132986
    H     -2.09490087      0.96854708     -0.27402236
    C     -1.08084978      0.23061051     -2.85450991
    C      0.35782071      2.22388440     -2.86146648
    H      0.99053174      0.55676532      4.11865922
    C     -1.11549882      0.70290143      3.67767791
    N     -1.82070416      0.89122008      2.55680079
    H     -1.50709890     -0.60051669     -2.28457196
    C     -1.39109503      0.37569529     -4.20862375
    H      0.98773183      2.94899742     -2.33960051
    C      0.08395120      2.32524451     -4.22888288
    C     -1.69039542      0.58812851      5.02163813
    H     -2.05525445     -0.32602163     -4.71987481
    C     -0.82272064      1.45593646     -4.90609458
    N      0.54458672      3.18609220     -5.21443155
    C     -0.89867949      0.33466099      6.16202277
    C     -3.08701795      0.73925294      5.16995164
    N     -0.99196359      1.85883893     -6.22712691
    H      1.24914477      3.90986877     -5.09701588
    C     -0.06909412      2.82240292     -6.40479617
    H      0.18639784      0.21407960      6.08526141
    C     -1.50279838      0.23424545      7.42188232
    H     -3.67963188      0.93620030      4.27236294
    C     -3.70148889      0.64252620      6.42831860
    C      0.28947886      3.45629563     -7.70901029
    H     -0.88651040      0.03865954      8.30335624
    C     -2.89143297      0.38313221      7.55549257
    C     -5.19710576      0.81257551      6.56832721
    H      1.34927753      3.28176097     -7.96622118
    H     -0.33674533      3.01524118     -8.49640805
    H      0.12215950      4.54707693     -7.69039900
    H     -3.35186712      0.29828032      8.54533829
    H     -5.70809846     -0.16601865      6.51337315
    H     -5.46228803      1.26643794      7.53737430
    H     -5.60812904      1.44376173      5.76519720
    C      2.00405410     -3.73917624      0.50515955
    C      2.33242584     -2.89687490     -0.71925234
    O      3.72230064     -2.55224915     -0.66009877
    C      2.02064617     -3.60836590     -2.05430589
    C      0.54424970     -3.92106327     -2.24521901
    O      2.44930797     -2.79102968     -3.15214904
    H      2.33703771     -3.22998796      1.41585830
    H      2.52830701     -4.69952035      0.46990238
    H      0.93037844     -3.92312391      0.59037588
    H      1.78718239     -1.94786572     -0.66510295
    H      4.22165176     -3.24145788     -1.13206465
    H      2.60104237     -4.53526372     -2.12483736
    H     -0.06124263     -3.01174613     -2.16119298
    H      0.18942316     -4.64812918     -1.51048553
    H      0.36633794     -4.32690475     -3.24709430
    H      2.34019945     -1.85930332     -2.89099329
