64
Energy:    -73.59379231
    H     -1.86353784      3.35680511      1.38934956
    O     -0.90809966      3.57392652      1.45873381
    S     -0.20447613      2.24594160      2.21141433
    C      0.41361481      1.31499976      0.78853701
    O     -1.30320456      1.50929557      2.86857676
    O      0.92476842      2.81036912      2.97040993
    C      0.55562574      2.01818379     -0.41969067
    C      0.73261501     -0.07367847      0.93386984
    H      0.30079093      3.07651332     -0.48127667
    C      1.03129834      1.28581951     -1.50866686
    C      1.15630438     -0.77961928     -0.20719803
    C      0.63896440     -0.80822051      2.22778273
    N      1.29548237      1.62121426     -2.82495830
    C      1.35986929     -0.09811646     -1.41524656
    H      1.36583247     -1.84953896     -0.13154189
    C     -0.15520638     -1.98748674      2.29728030
    C      1.37254188     -0.37358960      3.34812913
    H      1.20571162      2.54623830     -3.23583143
    C      1.75951681      0.47418750     -3.46186304
    N      1.85886318     -0.55978884     -2.61914884
    H     -0.70785232     -2.29096482      1.40297973
    C     -0.24529869     -2.75242523      3.46247491
    H      2.01953152      0.50568035      3.29147440
    C      1.22933109     -1.11665467      4.52390588
    C      2.09218768      0.42859582     -4.88915400
    H     -0.85947190     -3.65565303      3.50563510
    C      0.47916322     -2.32876009      4.59034849
    N      1.70868730     -0.93137295      5.81248584
    C      1.91459580      1.53936601     -5.74132049
    C      2.60915368     -0.77391233     -5.42029455
    N      0.60528772     -2.91366659      5.84656383
    H      2.24574246     -0.13389884      6.14361694
    C      1.24928047     -1.98971611      6.58365192
    H      1.51856162      2.48742487     -5.36427097
    C      2.24914782      1.43794150     -7.09781487
    H      2.73906286     -1.62058141     -4.74064753
    C      2.94938168     -0.88482764     -6.77763044
    C      1.46816990     -2.05009017      8.06007036
    H      2.11113617      2.30053575     -7.75504006
    C      2.75876321      0.23696688     -7.61383534
    C      3.50653269     -2.17832351     -7.32703029
    H      0.98705394     -1.20019348      8.57581840
    H      1.02893333     -2.98202521      8.44118625
    H      2.54243197     -2.03356103      8.31272388
    H      3.01252106      0.16941367     -8.67686757
    H      2.69571755     -2.81328907     -7.72849954
    H      4.21625011     -1.99413415     -8.15028023
    H      4.02293157     -2.75863205     -6.54669178
    C     -4.26662681     -1.01206831      1.04782613
    C     -4.35565720      0.45885875      1.42852441
    O     -3.94732779      0.58797263      2.79622858
    C     -3.49675141      1.37728197      0.53154412
    C     -3.92958631      1.37877703     -0.92675136
    O     -3.55809664      2.72559836      1.01665100
    H     -4.81069919     -1.62515729      1.77420767
    H     -3.22731681     -1.35565227      1.05921867
    H     -4.69165669     -1.19769907      0.05849868
    H     -5.40295564      0.77993778      1.39827152
    H     -2.98824763      0.75273124      2.80771114
    H     -2.44371769      1.08124679      0.59830609
    H     -4.98589744      1.65455901     -1.01997209
    H     -3.77986194      0.40087774     -1.39113869
    H     -3.35843017      2.12196644     -1.49381764
    H     -4.44137924      2.86407122      1.40247237
