64
Energy:    -73.51360695
    H     -1.85465548      3.42626646      1.25190953
    O     -0.89856679      3.63834718      1.32763391
    S     -0.21577963      2.32973277      2.13167871
    C      0.41427764      1.34946817      0.74770683
    O     -1.32914809      1.62255665      2.79652952
    O      0.90743657      2.90954742      2.88801616
    C      0.57829488      2.01283114     -0.48009483
    C      0.72028888     -0.03623331      0.94135218
    H      0.33269027      3.07054182     -0.57869244
    C      1.06296835      1.24270946     -1.53862931
    C      1.15390436     -0.78121270     -0.17080083
    C      0.60321025     -0.72857611      2.25645181
    N      1.34771168      1.53413409     -2.86108873
    C      1.37929426     -0.13997302     -1.39688284
    H      1.35392453     -1.84972226     -0.05840313
    C     -0.20112357     -1.89908007      2.35223064
    C      1.32485756     -0.26405595      3.37254418
    H      1.27085905      2.44628133     -3.30225319
    C      1.81131088      0.36402052     -3.45485299
    N      1.89099076     -0.64337235     -2.57852272
    H     -0.74390725     -2.22668564      1.46040641
    C     -0.31312979     -2.62591921      3.53970084
    H      1.97948398      0.60811781      3.29705788
    C      1.15976797     -0.96830076      4.56916052
    C      2.16303646      0.27062403     -4.87523118
    H     -0.93494913     -3.52271168      3.60291463
    C      0.39921385     -2.17205181      4.66353664
    N      1.62296283     -0.74575498      5.85775429
    C      2.00585618      1.35505339     -5.76452547
    C      2.67768072     -0.95197611     -5.36080319
    N      0.50357882     -2.71767644      5.93927240
    H      2.16173626      0.05780725      6.17088675
    C      1.14474171     -1.77560544      6.65559801
    H      1.61221950      2.31754173     -5.42321716
    C      2.35805664      1.20808906     -7.11235533
    H      2.79162188     -1.77757038     -4.65294973
    C      3.03549296     -1.10849527     -6.70909476
    C      1.34300133     -1.79067315      8.13608275
    H      2.23583415      2.05037284     -7.79841706
    C      2.86515720     -0.01244312     -7.58296685
    C      3.58984748     -2.42291463     -7.20947641
    H      0.86162744     -0.92125319      8.61793451
    H      0.89126335     -2.70672568      8.54038654
    H      2.41381658     -1.77414183      8.40296741
    H      3.13284072     -0.11562767     -8.63970357
    H      2.77959042     -3.06424682     -7.60184935
    H      4.31215374     -2.27027490     -8.02821921
    H      4.09096161     -2.98197514     -6.40406349
    C     -4.33283960     -0.98671390      0.99555442
    C     -4.36557553      0.48859108      1.36823063
    O     -3.94368500      0.61034914      2.73248917
    C     -3.47972420      1.36998359      0.46037125
    C     -3.92194052      1.37913375     -0.99507885
    O     -3.48857266      2.72233429      0.93798856
    H     -4.89406775     -1.57543933      1.72900403
    H     -3.30671090     -1.36797538      1.00223107
    H     -4.77095642     -1.16222287      0.01009602
    H     -5.40063454      0.84754937      1.34287732
    H     -2.97917469      0.74001487      2.73680829
    H     -2.43777601      1.03604674      0.52204903
    H     -4.96807976      1.69280296     -1.08307502
    H     -3.81111446      0.39383357     -1.45471037
    H     -3.32783490      2.09777246     -1.57015356
    H     -4.36361702      2.89514617      1.32869872
