64
Energy:    -72.18275525
    H     -1.93552907      3.26247664      1.46152077
    O     -0.98565676      3.50426831      1.52553150
    S     -0.24173605      2.19021765      2.26377999
    C      0.39012836      1.28564904      0.82998363
    O     -1.31578071      1.42035402      2.92366790
    O      0.87782724      2.77906943      3.01854991
    C      0.50461917      2.00056505     -0.37427379
    C      0.74667629     -0.09508258      0.96326437
    H      0.22153691      3.05219339     -0.42659265
    C      0.99135602      1.28846183     -1.47176513
    C      1.18036777     -0.78178912     -0.18575558
    C      0.68198782     -0.84065285      2.25263375
    N      1.23686615      1.63968817     -2.78754279
    C      1.35696214     -0.08692240     -1.39043008
    H      1.41856977     -1.84629545     -0.11912172
    C     -0.08029730     -2.04092161      2.31958371
    C      1.41212550     -0.39446104      3.37068018
    H      1.11971493      2.56480177     -3.19125731
    C      1.72623986      0.50968474     -3.43581095
    N      1.85902856     -0.52703448     -2.60111075
    H     -0.63135499     -2.35277501      1.42718645
    C     -0.14158003     -2.81590479      3.48000239
    H      2.03528462      0.50194963      3.31552947
    C      1.29724610     -1.14905352      4.54221717
    C      2.04942918      0.48263183     -4.86574969
    H     -0.73140354     -3.73530595      3.52125438
    C      0.57979013     -2.38096669      4.60556445
    N      1.78107267     -0.95997778      5.82857335
    C      1.83633082      1.59411508     -5.70879837
    C      2.59395896     -0.70215660     -5.40903018
    N      0.73057263     -2.97089757      5.85670241
    H      2.29936246     -0.15088092      6.16140810
    C      1.35543029     -2.03531814      6.59558943
    H      1.41825252      2.52879296     -5.32225887
    C      2.16339553      1.51081669     -7.06834942
    H      2.75115712     -1.54971864     -4.73629522
    C      2.92694137     -0.79478667     -6.76953023
    C      1.58675029     -2.09996510      8.06993024
    H      1.99784415      2.37393107     -7.71849349
    C      2.70064888      0.32726399     -7.59644681
    C      3.51390358     -2.06934347     -7.33199741
    H      1.08723469     -1.26660550      8.59508637
    H      1.17505434     -3.04575035      8.44765727
    H      2.66204337     -2.05680456      8.31493628
    H      2.94822803      0.27368885     -8.66173000
    H      2.71715390     -2.72273977     -7.73205142
    H      4.21241177     -1.86086804     -8.15903388
    H      4.05117284     -2.64112740     -6.55949572
    C     -4.26673078     -1.02209205      0.98177131
    C     -4.39611141      0.44928367      1.34891998
    O     -4.02338790      0.59695801      2.72488782
    C     -3.53578114      1.37945828      0.46551690
    C     -3.93361501      1.36118238     -1.00260033
    O     -3.63737342      2.72959932      0.93864180
    H     -4.81481520     -1.64147995      1.69974423
    H     -3.22091139     -1.34320082      1.02044886
    H     -4.66397562     -1.22390771     -0.01589846
    H     -5.44898593      0.74758627      1.29137172
    H     -3.06857929      0.78234037      2.75784075
    H     -2.47857884      1.10657860      0.55950614
    H     -4.99303035      1.61355354     -1.12296197
    H     -3.75206755      0.38340923     -1.45576718
    H     -3.36503289      2.11236368     -1.56166654
    H     -4.53236155      2.85185303      1.30233298
