64
Energy:    -71.81934822
    H     -1.80437267      3.36947174      1.43365812
    O     -0.84675732      3.58115771      1.48824640
    S     -0.13948801      2.25020167      2.23221155
    C      0.45161007      1.31365943      0.80156111
    O     -1.23237029      1.52087090      2.90704409
    O      1.00435487      2.80916957      2.97317332
    C      0.57936395      2.01427758     -0.40974486
    C      0.76476087     -0.07663254      0.94416128
    H      0.32973311      3.07397527     -0.46907658
    C      1.03426300      1.27761227     -1.50467959
    C      1.16704719     -0.78664856     -0.20211267
    C      0.68647747     -0.80876531      2.24045843
    N      1.28041688      1.60958558     -2.82532640
    C      1.35622465     -0.10806732     -1.41413799
    H      1.37152344     -1.85765376     -0.12800922
    C     -0.11333721     -1.98331357      2.32375840
    C      1.43942782     -0.37678344      3.34891385
    H      1.18977127      2.53452411     -3.23619997
    C      1.72813278      0.45898031     -3.46743542
    N      1.83426284     -0.57434523     -2.62474999
    H     -0.68120098     -2.28486845      1.43838538
    C     -0.19018694     -2.74604729      3.49134454
    H      2.09054517      0.49864429      3.28113851
    C      1.30975294     -1.11732148      4.52785144
    C      2.03888690      0.40941845     -4.89952603
    H     -0.80883463     -3.64564176      3.54516673
    C      0.55369978     -2.32496744      4.60748087
    N      1.80962466     -0.93297160      5.80874698
    C      1.85482132      1.51997588     -5.75059538
    C      2.54080881     -0.79682210     -5.43659970
    N      0.69545476     -2.90879362      5.86253167
    H      2.35622162     -0.13814620      6.13050052
    C      1.35585108     -1.98753145      6.58838476
    H      1.47001500      2.47085078     -5.36903802
    C      2.16820629      1.41467273     -7.11184118
    H      2.67610885     -1.64325429     -4.75770984
    C      2.85980154     -0.91164994     -6.79875836
    C      1.59671762     -2.04705601      8.06141196
    H      2.02523616      2.27710884     -7.76821340
    C      2.66301633      0.21002991     -7.63368763
    C      3.40110204     -2.20913537     -7.35455898
    H      1.12837461     -1.19365025      8.58308853
    H      1.15793495     -2.97588564      8.45054727
    H      2.67475934     -2.03638399      8.29775523
    H      2.90025628      0.13948568     -8.70033411
    H      2.58065320     -2.83997113     -7.74274703
    H      4.09932388     -2.03023746     -8.18873330
    H      3.92590159     -2.79130486     -6.58124267
    C     -4.40710519     -0.95601162      1.09546116
    C     -4.42222928      0.53026425      1.42293529
    O     -4.03357891      0.68586283      2.79361322
    C     -3.49708240      1.36792858      0.51287172
    C     -3.90127411      1.34075137     -0.95336989
    O     -3.49331396      2.73408612      0.94950472
    H     -4.99788109     -1.51221474      1.83108670
    H     -3.38870443     -1.35496902      1.14060406
    H     -4.82276016     -1.15355417      0.10445870
    H     -5.44948461      0.90652365      1.35956062
    H     -3.06727373      0.79853525      2.81952118
    H     -2.46341873      1.01765500      0.61197692
    H     -4.93882032      1.67004575     -1.07827818
    H     -3.79680641      0.34016151     -1.38029662
    H     -3.27933437      2.03100944     -1.53375663
    H     -4.37482916      2.93410317      1.31164438
