64
Energy:    -71.41265354
    H     -0.83562332      1.39289173     -3.81379440
    O      0.11698734      1.15495732     -3.84096300
    S      0.79838241      1.89625448     -2.49510369
    C      0.79724015      0.53770785     -1.30027368
    O     -0.14865698      2.94930564     -2.07568308
    O      2.17967930      2.20240402     -2.90514928
    C      0.67222603     -0.76356424     -1.81555168
    C      0.92230296      0.82264664      0.09775321
    H      0.58093460     -0.93097718     -2.88906636
    C      0.67068418     -1.80065144     -0.88123975
    C      0.86019440     -0.25367183      1.00195567
    C      1.11396945      2.19674962      0.64331526
    N      0.56939715     -3.17547581     -1.00167590
    C      0.78961832     -1.56825149      0.52012028
    H      0.91141412     -0.05834878      2.07600382
    C      0.20356945      2.68486193      1.62266413
    C      2.21368533      2.97688561      0.23806371
    H      0.50535749     -3.69632578     -1.87182487
    C      0.62970706     -3.71143418      0.28119485
    N      0.81752606     -2.76657256      1.20915204
    H     -0.63649797      2.04554218      1.91049564
    C      0.35445221      3.94150233      2.21343931
    H      2.94251404      2.59307384     -0.48055875
    C      2.32136994      4.25461796      0.79565681
    C      0.49875681     -5.14536133      0.55798528
    H     -0.35146110      4.30748805      2.96352788
    C      1.44617992      4.73316295      1.81614841
    N      3.19446859      5.30714087      0.56232384
    C      0.24667970     -6.09041200     -0.45930197
    C      0.63234475     -5.58667819      1.89319451
    N      1.85628894      5.98484106      2.26471559
    H      3.92567163      5.33441625     -0.14382004
    C      2.83189806      6.34439931      1.40995555
    H      0.13945411     -5.78510880     -1.50482463
    C      0.13032895     -7.44844428     -0.13603765
    H      0.82855844     -4.83636205      2.66401931
    C      0.51957071     -6.94547223      2.22692912
    C      3.47908783      7.68895021      1.34141890
    H     -0.06413125     -8.17802294     -0.92658253
    C      0.26187657     -7.87368235      1.19444828
    C      0.67097139     -7.39975452      3.66083792
    H      3.31887812      8.16579010      0.35818467
    H      3.03619215      8.33042113      2.11539532
    H      4.56766133      7.62524561      1.51199277
    H      0.16467300     -8.93760393      1.43448234
    H     -0.31317754     -7.44482417      4.16203610
    H      1.11488154     -8.40714037      3.71985084
    H      1.30286558     -6.70746548      4.23859185
    C     -3.39753527     -0.36257213     -2.20081720
    C     -2.73295427      1.00315397     -2.10279525
    O     -2.46912677      1.46400459     -3.43397133
    C     -3.58205721      2.04483460     -1.34140202
    C     -3.82509495      1.68184407      0.11569940
    O     -2.93284309      3.32312880     -1.38056797
    H     -2.80203978     -1.02930097     -2.83357369
    H     -4.38516309     -0.28319882     -2.66625911
    H     -3.50382467     -0.82934408     -1.21862347
    H     -1.75296328      0.89755862     -1.62393381
    H     -3.24006641      1.97857274     -3.73059177
    H     -4.54429312      2.18055783     -1.84801356
    H     -2.87709276      1.52269244      0.64153361
    H     -4.43380915      0.77895465      0.20853107
    H     -4.33882841      2.49987972      0.63242910
    H     -1.97125972      3.16958325     -1.38204593
