64
Energy:    -70.92342826
    H     -0.94222379      1.53419580     -3.79939784
    O      0.03904341      1.49061248     -3.79363702
    S      0.50791097      2.22926872     -2.35846868
    C      0.73316034      0.79678146     -1.27656666
    O     -0.64525529      3.03546573     -1.90906022
    O      1.81469514      2.83474358     -2.66759861
    C      0.88972911     -0.45317920     -1.89908860
    C      0.74640175      0.97624998      0.14432240
    H      0.87394966     -0.53987357     -2.98584068
    C      1.06019258     -1.54880048     -1.05112208
    C      0.86651669     -0.16688451      0.95593619
    C      0.63942869      2.30771582      0.80635598
    N      1.23988616     -2.90078008     -1.28514642
    C      1.07779284     -1.42213954      0.36860051
    H      0.83746941     -0.06081891      2.04325415
    C     -0.38609029      2.51992658      1.77045318
    C      1.57572879      3.32060667      0.52420310
    H      1.31370719     -3.34527754     -2.19592492
    C      1.35785454     -3.52559079     -0.04726879
    N      1.31845370     -2.64784108      0.96126828
    H     -1.09185467      1.70573480      1.96092203
    C     -0.51124980      3.72469918      2.46599907
    H      2.39288064      3.15173988     -0.18196109
    C      1.40530446      4.54045307      1.18604621
    C      1.50542190     -4.97613447      0.10782771
    H     -1.30358456      3.87786431      3.20331723
    C      0.41463055      4.74658080      2.19224825
    N      2.05891211      5.75987458      1.08427088
    C      1.48528614     -5.85876437     -0.99312460
    C      1.67429521     -5.49878633      1.40925263
    N      0.54961327      6.00977519      2.75989216
    H      2.79588477      5.99187786      0.42314548
    C      1.46515583      6.62725042      1.99033635
    H      1.35852072     -5.48934698     -2.01551705
    C      1.63026290     -7.23642404     -0.78497898
    H      1.68782213     -4.79554654      2.24645978
    C      1.82253409     -6.87741354      1.62795393
    C      1.83311176      8.07315268      2.06343975
    H      1.61505304     -7.91732728     -1.64008157
    C      1.79410657     -7.74335453      0.51290457
    C      2.00774035     -7.41794803      3.02756463
    H      1.61790136      8.59424706      1.11373552
    H      1.24244537      8.54474348      2.86055726
    H      2.90533513      8.20890369      2.28716884
    H      1.90225562     -8.82267083      0.66248433
    H      1.03431665     -7.69875236      3.46957735
    H      2.64122818     -8.32019416      3.03073976
    H      2.46668250     -6.66909950      3.69160678
    C     -3.29049680     -0.90177433     -2.06860831
    C     -2.85177314      0.55191421     -1.96470835
    O     -2.64862176      1.04938245     -3.29334406
    C     -3.86401180      1.44561038     -1.21472565
    C     -4.06361453      1.04799788      0.23993481
    O     -3.42500168      2.81060405     -1.24806322
    H     -2.58953647     -1.46547523     -2.69344342
    H     -4.27269071     -0.97957759     -2.54566887
    H     -3.33306832     -1.37996992     -1.08708162
    H     -1.87312448      0.60261037     -1.47428231
    H     -3.48777793      1.43551476     -3.59966216
    H     -4.82957538      1.42748725     -1.73273389
    H     -3.10862002      1.04072474      0.77703032
    H     -4.52271760      0.06005908      0.32689047
    H     -4.70644666      1.77410119      0.74949819
    H     -2.45128656      2.81127556     -1.23809238
