64
Energy:    -70.90777520
    H     -1.87483119      3.38740620      1.23932065
    O     -0.92138540      3.61869154      1.28692536
    S     -0.19373349      2.33814701      2.09679349
    C      0.42014240      1.34444393      0.71513522
    O     -1.27635303      1.62267320      2.80230476
    O      0.93675126      2.95273435      2.81382391
    C      0.54062760      1.98796960     -0.52816966
    C      0.75740021     -0.03147999      0.92584960
    H      0.27241048      3.03890102     -0.63951471
    C      1.01331350      1.20762835     -1.58463858
    C      1.17722933     -0.78863268     -0.18336828
    C      0.68657122     -0.70148547      2.25574016
    N      1.25922129      1.47985366     -2.91892819
    C      1.35952363     -0.16604320     -1.42611408
    H      1.40043709     -1.85095685     -0.05687850
    C     -0.09253759     -1.88485769      2.39294666
    C      1.42690291     -0.20301829      3.34461824
    H      1.15388450      2.38210108     -3.37433873
    C      1.73014373      0.30784809     -3.50312077
    N      1.85102648     -0.68152243     -2.61111328
    H     -0.65110292     -2.23897088      1.52122502
    C     -0.16083118     -2.59160984      3.59576144
    H      2.06260289      0.67970195      3.23686155
    C      1.30534842     -0.88800768      4.55751562
    C      2.04792217      0.19482943     -4.93005863
    H     -0.76357594     -3.49855343      3.69086177
    C      0.57059945     -2.10382272      4.69280700
    N      1.79631132     -0.63307870      5.82972497
    C      1.84777693      1.25952110     -5.83444269
    C      2.57357875     -1.02669189     -5.40646268
    N      0.71730726     -2.62374657      5.97509247
    H      2.32726031      0.18606430      6.11457389
    C      1.35803564     -1.65678163      6.65784861
    H      1.44443968      2.22061909     -5.50062428
    C      2.16887276      1.09430184     -7.18791565
    H      2.72100430     -1.83679737     -4.68699078
    C      2.90045508     -1.20136626     -6.76036767
    C      1.59355209     -1.64079461      8.13285553
    H      2.01339581      1.92133866     -7.88569643
    C      2.68732433     -0.12501702     -7.64921219
    C      3.46719068     -2.51420599     -7.25093022
    H      1.10782323     -0.77177799      8.61105067
    H      1.16971298     -2.55751166      8.56491022
    H      2.67020024     -1.59931526      8.37213408
    H      2.93039446     -0.24267617     -8.71037535
    H      2.65980072     -3.17771533     -7.61100910
    H      4.16571452     -2.36323220     -8.09035643
    H      3.99893247     -3.04882769     -6.44856851
    C     -4.37667064     -0.96320195      1.10513035
    C     -4.45636574      0.52308003      1.42309037
    O     -4.14653908      0.69629059      2.81162324
    C     -3.51100099      1.38637545      0.55891415
    C     -3.83531156      1.34065547     -0.92658453
    O     -3.57385619      2.75362497      0.98754798
    H     -4.98792534     -1.53516721      1.81135016
    H     -3.34999258     -1.32923315      1.20661102
    H     -4.73237974     -1.17773736      0.09452480
    H     -5.49018873      0.86607190      1.30305871
    H     -3.18705218      0.83988524      2.88828781
    H     -2.47351257      1.06969816      0.71482208
    H     -4.87463295      1.63614110     -1.10834887
    H     -3.67653804      0.34228051     -1.34179341
    H     -3.20548731      2.04819925     -1.47687283
    H     -4.47933775      2.92676006      1.30115344
