64
Energy:    -70.33184782
    H      1.04011887     -0.74908982     -3.82911286
    O      0.47188604     -1.51540484     -3.59525232
    S      1.03644009     -2.04823300     -2.10443681
    C     -0.11339225     -1.22849648     -0.97342549
    O      2.39478970     -1.48910715     -1.94958652
    O      0.78239289     -3.49917249     -2.11341516
    C     -1.32249441     -0.76545225     -1.51942094
    C      0.23416786     -1.08199134      0.40825762
    H     -1.54343310     -0.90136348     -2.57843427
    C     -2.19796892     -0.13330038     -0.63487620
    C     -0.65852716     -0.38911045      1.24665649
    C      1.48946773     -1.62368604      1.00266663
    N     -3.44757899      0.43896988     -0.79577194
    C     -1.89661498      0.03915200      0.74766167
    H     -0.39713726     -0.22780874      2.29547062
    C      2.36202732     -0.74028980      1.69869598
    C      1.77749780     -2.99971404      0.92649824
    H     -3.98751805      0.46378865     -1.65623393
    C     -3.84857980      0.91971164      0.44710042
    N     -2.95486499      0.64139373      1.40258825
    H      2.09976840      0.32138796      1.73544644
    C      3.52730429     -1.19002395      2.32383178
    H      1.09142436     -3.69247914      0.43223036
    C      2.97493370     -3.42751266      1.50808366
    C     -5.10573771      1.64396554      0.65903977
    H      4.19143675     -0.50280370      2.85444314
    C      3.82964945     -2.56117022      2.25325327
    N      3.61350774     -4.65872286      1.53799411
    C     -5.98456823      1.95628678     -0.40003971
    C     -5.44068203      2.03775859      1.97362310
    N      4.88335381     -3.27689140      2.81320890
    H      3.30902658     -5.50388520      1.06151448
    C      4.78489109     -4.50247210      2.26551645
    H     -5.75869257      1.66530289     -1.43063836
    C     -7.17234392      2.65130647     -0.13845695
    H     -4.74490875      1.78368456      2.77798056
    C     -6.62949693      2.73260659      2.24624627
    C      5.79131571     -5.59868655      2.39510189
    H     -7.85133068      2.89093601     -0.96102345
    C     -7.49206968      3.03968012      1.17122483
    C     -6.97384278      3.14110052      3.66044132
    H      6.20121960     -5.89033571      1.41188646
    H      6.61790613     -5.24229393      3.02471571
    H      5.35362843     -6.49959678      2.85871443
    H     -8.42163139      3.58612102      1.36178022
    H     -6.61309593      4.16470391      3.86991166
    H     -8.06360406      3.13751082      3.82709203
    H     -6.50745197      2.47050996      4.39877859
    C      1.28627036      2.78718799     -2.83411592
    C      2.16013299      1.54381286     -2.75125224
    O      1.93040380      0.76153300     -3.92992977
    C      3.66548058      1.86068935     -2.61228494
    C      4.01360666      2.60443553     -1.33180697
    O      4.42300012      0.64316057     -2.64121237
    H      0.24628201      2.50696552     -3.03266720
    H      1.60326709      3.43235043     -3.65972085
    H      1.31351352      3.36038569     -1.90428787
    H      1.82984708      0.92208038     -1.91148980
    H      2.57493591      1.03985065     -4.60389538
    H      4.00258345      2.44523569     -3.47579015
    H      3.67050951      2.04858102     -0.45212004
    H      3.56739833      3.60187921     -1.31272204
    H      5.09970048      2.70956187     -1.23453071
    H      3.88248032     -0.05449290     -2.22970420
