64
Energy:    -70.18212410
    H     -1.92229657      3.41505070      1.27432632
    O     -0.98024194      3.68638924      1.21328158
    S     -0.12172692      2.49817120      2.03562448
    C      0.40497339      1.43066295      0.67317011
    O     -1.09936543      1.79447581      2.89046349
    O      1.04152540      3.20750416      2.59556805
    C      0.37862850      1.98552488     -0.61752086
    C      0.82344413      0.08816775      0.94501361
    H      0.05308904      3.01414380     -0.77488093
    C      0.78558255      1.14894943     -1.65820377
    C      1.17181817     -0.73123826     -0.14453231
    C      0.90850969     -0.48478805      2.31870153
    N      0.89252657      1.33204048     -3.02566369
    C      1.20796002     -0.19477687     -1.43920174
    H      1.45453841     -1.77186390      0.03301074
    C      0.20096795     -1.68453565      2.61229375
    C      1.72394685      0.12080086      3.29365810
    H      0.70355976      2.19364654     -3.53011542
    C      1.36002378      0.13971413     -3.57013614
    N      1.60939246     -0.77609346     -2.62766294
    H     -0.41997877     -2.12322558      1.82535900
    C      0.27833180     -2.30332859      3.86210819
    H      2.30545700      1.01747656      3.06400700
    C      1.74828509     -0.47765261      4.55713232
    C      1.54748314     -0.06508160     -5.00986725
    H     -0.27047549     -3.22378029      4.07768005
    C      1.08617367     -1.70813275      4.84677535
    N      2.34410949     -0.11108946      5.75512010
    C      1.21465975      0.92177284     -5.96217177
    C      2.08179884     -1.29670445     -5.44918707
    N      1.37621857     -2.12649201      6.14174620
    H      2.86117474      0.74690950      5.92982647
    C      2.03296748     -1.08770673      6.69066879
    H      0.80060779      1.88821307     -5.65823221
    C      1.41470758      0.67047356     -7.32566674
    H      2.33314190     -2.04547751     -4.69300550
    C      2.28799006     -1.55723127     -6.81301586
    C      2.40474826     -0.95439992      8.13128580
    H      1.15661182      1.43739420     -8.06070436
    C      1.94317273     -0.55812913     -7.74944147
    C      2.86603401     -2.87928469     -7.26404684
    H      1.92652747     -0.07236553      8.59292766
    H      2.06590879     -1.85287523      8.66477519
    H      3.49603410     -0.85332900      8.26176909
    H      2.09083862     -0.74365879     -8.81844452
    H      2.05982609     -3.59853763     -7.49746494
    H      3.47509288     -2.76300558     -8.17557932
    H      3.49468892     -3.33238968     -6.48184300
    C     -4.26900419     -1.13229638      1.16774201
    C     -4.33696412      0.35680651      1.47504970
    O     -4.00611160      0.53939142      2.85751755
    C     -3.40018527      1.20866453      0.59041570
    C     -3.74632479      1.15287465     -0.88980351
    O     -3.45026235      2.57952622      1.00907967
    H     -4.87262414     -1.69570876      1.88727829
    H     -3.24271450     -1.50253237      1.25718349
    H     -4.64042322     -1.35301462      0.16414380
    H     -5.37077819      0.70389350      1.36734603
    H     -3.04493506      0.67889310      2.91908818
    H     -2.36205779      0.88815462      0.73372912
    H     -4.78676297      1.45199988     -1.05877537
    H     -3.59838488      0.15050842     -1.29935903
    H     -3.12121808      1.85299260     -1.45477296
    H     -4.35024097      2.75953926      1.33443300
