64
Energy:    -69.74043754
    H     -3.30387934      0.71831865     -2.44927968
    O     -2.62033751      0.37433780     -3.06512523
    S     -1.23464111      1.26591710     -2.73332734
    C     -0.35602947      0.15474470     -1.60789122
    O     -1.68077784      2.47670026     -2.01452267
    O     -0.52639349      1.33634217     -4.02300622
    C     -0.74324183     -1.19598115     -1.61532655
    C      0.68150990      0.67208823     -0.76695262
    H     -1.53875822     -1.54355908     -2.27497665
    C     -0.05777979     -2.04013619     -0.74009227
    C      1.30405420     -0.20907131      0.13631781
    C      1.13470412      2.09200001     -0.79855186
    N     -0.15362056     -3.39395477     -0.47010007
    C      0.97990226     -1.57284051      0.11828744
    H      2.06961346      0.17035768      0.81771832
    C      1.12415443      2.84797018      0.40751771
    C      1.62096632      2.65793468     -1.99248780
    H     -0.77429912     -4.05313949     -0.93137943
    C      0.79391704     -3.69231109      0.50447779
    N      1.52553143     -2.62220811      0.83427169
    H      0.73968991      2.36933777      1.31327047
    C      1.58391137      4.16584977      0.45989085
    H      1.67398261      2.07136012     -2.91337897
    C      2.02566181      3.99525350     -1.93858105
    C      0.95168043     -5.02869894      1.08678889
    H      1.56990748      4.73813502      1.39111879
    C      2.06932917      4.74537920     -0.72541552
    N      2.45336880      4.88379701     -2.91434084
    C      0.11212098     -6.10795827      0.73768113
    C      1.98418607     -5.23330922      2.02883811
    N      2.61996794      6.00368142     -0.94806426
    H      2.49862764      4.70089396     -3.91361013
    C      2.72614762      6.09122725     -2.28700847
    H     -0.69650836     -5.98679119      0.01017709
    C      0.30904185     -7.36341383      1.32703884
    H      2.62262169     -4.38266568      2.28270917
    C      2.19092162     -6.48801508      2.62330563
    C      3.09006489      7.32020345     -3.05417907
    H     -0.34256127     -8.19755819      1.05376691
    C      1.33611938     -7.55293950      2.26379750
    C      3.30465205     -6.68943119      3.62551572
    H      2.27817003      7.62617807     -3.73755253
    H      3.27135020      8.13656519     -2.34187987
    H      4.00036649      7.16702759     -3.65918663
    H      1.47692786     -8.53821426      2.72030666
    H      2.93587735     -6.53269282      4.65567022
    H      3.71170511     -7.71275141      3.57563040
    H      4.12953248     -5.97915845      3.45986875
    C     -3.58893080     -0.28764557      1.17417777
    C     -3.38667029      0.96381621      0.33190816
    O     -4.22633770      0.85974193     -0.82487409
    C     -3.69560516      2.27171624      1.09332181
    C     -2.77841799      2.51288662      2.28268236
    O     -3.57731344      3.39100342      0.20436046
    H     -3.45505309     -1.18404287      0.55930246
    H     -4.60691320     -0.32784729      1.57472819
    H     -2.87858923     -0.33343134      2.00315094
    H     -2.35855402      0.98552500     -0.04670333
    H     -5.08216995      1.27081926     -0.61114859
    H     -4.73763289      2.26592616      1.43261326
    H     -1.72748168      2.50542130      1.97281763
    H     -2.92071334      1.75726689      3.05931024
    H     -2.97126406      3.49868030      2.71987250
    H     -2.87981125      3.18536268     -0.44326873
