64
Energy:    -74.84286750
    H     -3.04143711     -2.69092731     -0.01191247
    O     -3.45543201     -1.86670827      0.32585845
    S     -2.41591863     -1.30536065      1.52145822
    C     -1.44087197     -0.08826116      0.60427675
    O     -1.57049415     -2.45243878      1.91028107
    O     -3.29785329     -0.62043740      2.48214412
    C     -1.98296444      0.38258282     -0.60356873
    C     -0.17989046      0.34802794      1.12474524
    H     -2.94844495      0.02142201     -0.95882251
    C     -1.21798993      1.31928555     -1.30062898
    C      0.57727767      1.25206269      0.35707435
    C      0.37084752     -0.10499508      2.43393997
    N     -1.41334947      1.99363148     -2.49310465
    C      0.04368320      1.78258184     -0.82575800
    H      1.56122634      1.56801430      0.71256497
    C      1.66531947     -0.69583626      2.47208515
    C     -0.35531766      0.10249571      3.62215194
    H     -2.23447457      1.93013465     -3.08830775
    C     -0.30707006      2.81369488     -2.69382306
    N      0.55756698      2.74444821     -1.67561302
    H      2.19616669     -0.83725350      1.52578055
    C      2.26272420     -1.09454513      3.67002707
    H     -1.33094301      0.59530533      3.60749411
    C      0.23019214     -0.35205575      4.80776032
    C     -0.13160195      3.64502010     -3.88881985
    H      3.25679036     -1.54885917      3.68800552
    C      1.54798893     -0.89664225      4.86435698
    N     -0.22613593     -0.40475523      6.11678189
    C     -1.05347542      3.63483712     -4.95726854
    C      1.00298007      4.48321248     -3.96329919
    N      1.91434555     -1.15460005      6.18168025
    H     -1.15418206     -0.14257206      6.43932082
    C      0.78547233     -0.95919447      6.88820126
    H     -1.94451539      2.99978597     -4.93312717
    C     -0.83413413      4.45002675     -6.07514344
    H      1.70258127      4.47501444     -3.12298023
    C      1.23048555      5.30527007     -5.07814472
    C      0.59393850     -1.28547805      8.33326971
    H     -1.55064918      4.44037719     -6.90071843
    C      0.29834732      5.27574054     -6.13844814
    C      2.44764450      6.19990182     -5.13770262
    H     -0.20401073     -2.03547326      8.47671731
    H      1.53325909     -1.69741490      8.72654550
    H      0.32472670     -0.39019339      8.91990110
    H      0.46038255      5.90514290     -7.01969229
    H      3.28353251      5.68828544     -5.64889721
    H      2.23975650      7.12673004     -5.69728909
    H      2.79662401      6.47362273     -4.12991089
    C      1.62031615     -4.24052797     -0.29421049
    C      0.14469294     -4.61043690     -0.24743968
    O     -0.23678524     -4.73746446      1.12818977
    C     -0.76714492     -3.58480279     -0.95625588
    C     -0.49678632     -3.46122192     -2.44810306
    O     -2.14189058     -3.95410893     -0.78093798
    H      2.20661023     -4.94397670      0.30657413
    H      1.78669576     -3.24576724      0.13136430
    H      2.00731472     -4.25945989     -1.31585216
    H      0.00420473     -5.60351505     -0.68891430
    H     -0.55417960     -3.86906556      1.43192679
    H     -0.65710932     -2.60211095     -0.48383350
    H     -0.58283894     -4.43535658     -2.94226458
    H      0.49888146     -3.05526283     -2.64355865
    H     -1.23663879     -2.80331555     -2.91702899
    H     -2.18804571     -4.92625957     -0.74909736
