64
Energy:    -74.84284921
    H     -3.50930307      2.04187315     -0.08430037
    O     -2.85563441      2.70656039      0.22509606
    S     -1.99310875      1.94437585      1.44995614
    C     -0.53415227      1.36374452      0.55130034
    O     -2.81591883      0.79845214      1.88762774
    O     -1.61675020      3.03447254      2.36641097
    C     -0.26058079      1.97696387     -0.68302930
    C      0.27720178      0.32504950      1.11177092
    H     -0.90742153      2.76549458     -1.06853076
    C      0.86685275      1.51664002     -1.36529505
    C      1.37096781     -0.14094980      0.35916110
    C      0.02355081     -0.28670505      2.44741703
    N      1.44247816      1.86528098     -2.57443146
    C      1.70393813      0.48391548     -0.85077284
    H      1.98067712     -0.96116070      0.74628206
    C     -0.13121816     -1.69848621      2.54294993
    C     -0.00389924      0.51514973      3.60434892
    H      1.12288145      2.60046693     -3.19885484
    C      2.56764902      1.06457822     -2.74622088
    N      2.77605448      0.26355042     -1.69547561
    H     -0.10162530     -2.28457757      1.61941803
    C     -0.31897135     -2.34197764      3.76834518
    H      0.15789018      1.59464286      3.54569931
    C     -0.24844206     -0.13505288      4.81783208
    C      3.40866373      1.11048039     -3.94642722
    H     -0.43841400     -3.42676941      3.83041173
    C     -0.35192180     -1.55372544      4.93196400
    N     -0.43794279      0.33411603      6.10954412
    C      3.10673980      1.93889716     -5.04829137
    C      4.56028530      0.29369148     -3.99130093
    N     -0.47818253     -1.92908702      6.26585377
    H     -0.47925180      1.30977714      6.39312826
    C     -0.64481763     -0.76834514      6.92662683
    H      2.22426836      2.58625242     -5.04772850
    C      3.94641690      1.94122382     -6.16955225
    H      4.77437442     -0.33878943     -3.12540328
    C      5.40905358      0.29054649     -5.10933515
    C     -1.01062551     -0.63066110      8.36836075
    H      3.71011658      2.58475301     -7.02107637
    C      5.08556260      1.12296749     -6.20314769
    C      6.64021460     -0.58630116     -5.13707929
    H     -1.97269260     -0.10284288      8.49337212
    H     -1.10594410     -1.63511331      8.80272367
    H     -0.24335063     -0.07104470      8.93073495
    H      5.73152465      1.13097500     -7.08726471
    H      6.41523772     -1.56029210     -5.60878582
    H      7.45343441     -0.12115573     -5.71818019
    H      7.01245671     -0.79102760     -4.12126587
    C     -3.51888628     -2.87805984     -0.16843153
    C     -4.33294242     -1.59206252     -0.17116891
    O     -4.56934625     -1.21451206      1.19103037
    C     -3.64718070     -0.43408224     -0.92919698
    C     -3.44924081     -0.71196756     -2.41161850
    O     -4.42865162      0.76157281     -0.79973195
    H     -4.00117213     -3.63055988      0.46455113
    H     -2.52095137     -2.70703744      0.24776826
    H     -3.41833795     -3.29232663     -1.17448871
    H     -5.32120162     -1.78776330     -0.60231386
    H     -3.84351535     -0.62900463      1.46935132
    H     -2.67824989     -0.21149682     -0.46810826
    H     -4.40258370     -0.95550164     -2.89366361
    H     -2.75195554     -1.53728843     -2.57593133
    H     -3.05800147      0.17726519     -2.91789006
    H     -5.36610460      0.50199823     -0.75474365
