64
Energy:    -74.83343274
    H      2.92593367     -2.74618910      0.62345121
    O      2.65473773     -2.47898474      1.52891937
    S      2.63471313     -0.79840531      1.50867597
    C      0.88234632     -0.46579235      1.20561130
    O      3.44416205     -0.38638880      0.34388034
    O      2.98803002     -0.41089978      2.88521243
    C     -0.01924627     -1.51067656      1.46980212
    C      0.47805281      0.81951573      0.71997778
    H      0.33622674     -2.47254134      1.84027490
    C     -1.36718084     -1.23949395      1.22892169
    C     -0.88593822      1.02407914      0.44144003
    C      1.42483111      1.94880669      0.49448775
    N     -2.51812047     -1.99550684      1.36562754
    C     -1.81895181      0.02225800      0.74327779
    H     -1.21390854      1.98227862      0.03077809
    C      1.47354997      2.56441162     -0.78803440
    C      2.21637367      2.43643363      1.55179393
    H     -2.57097837     -2.94435481      1.72540327
    C     -3.58930826     -1.19756856      0.97511863
    N     -3.19818861      0.03922347      0.64875247
    H      0.84062701      2.15521037     -1.58128899
    C      2.29881567      3.65963595     -1.05326296
    H      2.15327395      1.99843452      2.55134193
    C      3.07894805      3.49697376      1.25798097
    C     -4.97380973     -1.67850311      0.93309908
    H      2.32985155      4.12400617     -2.04234793
    C      3.09747508      4.15542355     -0.00790474
    N      4.04912456      4.14893729      2.00514300
    C     -5.31883429     -3.01269008      1.23713884
    C     -5.99125347     -0.76615608      0.57557825
    N      3.96408032      5.24369706      0.01959307
    H      4.34320370      3.90679573      2.94797168
    C      4.60150975      5.13515704      1.20010685
    H     -4.55750085     -3.74630473      1.51999206
    C     -6.65890784     -3.41666649      1.17973732
    H     -5.69998765      0.26235920      0.34543580
    C     -7.33711677     -1.16071278      0.51731183
    C      5.77090806      5.95496078      1.63805481
    H     -6.92287382     -4.45070889      1.41667459
    C     -7.65980722     -2.50166464      0.82015832
    C     -8.41301984     -0.16878017      0.13798179
    H      6.65906278      5.32577077      1.82538914
    H      6.01393315      6.67146471      0.84166175
    H      5.55169548      6.51337377      2.56448170
    H     -8.70307995     -2.83111587      0.77501535
    H     -8.60853014     -0.20173903     -0.94943231
    H     -9.36445780     -0.39107662      0.64858447
    H     -8.11740327      0.86200440      0.38787780
    C      2.42476677     -0.64032614     -3.79549512
    C      3.18925002     -1.62371110     -2.92085041
    O      4.23044193     -0.90297134     -2.24967860
    C      2.29721958     -2.34758480     -1.88833766
    C      1.22362784     -3.22079643     -2.51990415
    O      3.10683556     -3.17673969     -1.04330918
    H      3.11787964     -0.08470124     -4.43611867
    H      1.89835830      0.09873307     -3.18309770
    H      1.70197331     -1.15042064     -4.43678383
    H      3.69669952     -2.35801142     -3.55656972
    H      3.87585666     -0.58713165     -1.40019254
    H      1.82560901     -1.61282589     -1.22600330
    H      1.66832130     -3.95388764     -3.20208008
    H      0.49441031     -2.62372958     -3.07317891
    H      0.69166028     -3.78932448     -1.74925483
    H      3.85402772     -3.50486239     -1.57459099
