64
Energy:    -74.82951594
    H     -1.93954217      3.29470056      1.37153064
    O     -0.98908819      3.53132617      1.44544644
    S     -0.26275408      2.21974944      2.20529067
    C      0.38172706      1.29802143      0.78813488
    O     -1.34984697      1.46259708      2.85848539
    O      0.85071746      2.80883811      2.96883613
    C      0.51595672      2.00095286     -0.42112886
    C      0.72802113     -0.08353783      0.93874843
    H      0.24005884      3.05374074     -0.48680270
    C      1.01222905      1.27569765     -1.50566086
    C      1.17206645     -0.78355813     -0.19821961
    C      0.64231559     -0.81662812      2.23403457
    N      1.27664098      1.61312741     -2.82138632
    C      1.36827503     -0.10105452     -1.40692015
    H      1.40282676     -1.84881788     -0.11868748
    C     -0.12815282     -2.01158367      2.30234015
    C      1.36089315     -0.36444078      3.35715029
    H      1.17035249      2.53512219     -3.23511737
    C      1.76724931      0.47417750     -3.45284700
    N      1.88299555     -0.55548536     -2.60695032
    H     -0.66971339     -2.32841727      1.40589238
    C     -0.20899203     -2.77531001      3.46900767
    H      1.99022410      0.52762774      3.30167677
    C      1.22644686     -1.10734947      4.53406017
    C      2.10845233      0.43181507     -4.87822201
    H     -0.80495555     -3.69069916      3.51122362
    C      0.50065371     -2.33425243      4.59963013
    N      1.69500755     -0.90919956      5.82469470
    C      1.91297218      1.53664543     -5.73418603
    C      2.65253590     -0.76126971     -5.40349505
    N      0.63184497     -2.91337415      5.85800483
    H      2.21399911     -0.10018110      6.15662525
    C      1.25300240     -1.97473353      6.59612896
    H      1.49578037      2.47740592     -5.36170020
    C      2.25680658      1.43867494     -7.08861162
    H      2.79591941     -1.60344755     -4.72098303
    C      3.00224192     -0.86861597     -6.75870739
    C      1.46512173     -2.02700664      8.07384406
    H      2.10487893      2.29666570     -7.74878648
    C      2.79342869      0.24701166     -7.59880799
    C      3.58844409     -2.15189957     -7.30179046
    H      0.96410999     -1.18577065      8.58482572
    H      1.04281945     -2.96671376      8.45501636
    H      2.53745283     -1.98806852      8.33217685
    H      3.05422086      0.18199202     -8.66029463
    H      2.79283753     -2.80416961     -7.70593647
    H      4.29870272     -1.95538889     -8.12171804
    H      4.11229174     -2.71968490     -6.51721576
    C     -4.31726292     -1.00362453      1.02199632
    C     -4.37522764      0.46884116      1.40274411
    O     -3.96554283      0.58910896      2.77084937
    C     -3.49604845      1.36877806      0.50666848
    C     -3.92735753      1.37961914     -0.95203950
    O     -3.52905239      2.71806242      0.99184003
    H     -4.87499747     -1.60500750      1.74780186
    H     -3.28553800     -1.36932399      1.03434978
    H     -4.74521318     -1.18006664      0.03224647
    H     -5.41540169      0.81221275      1.37152061
    H     -3.00317459      0.73334935      2.78326280
    H     -2.44964059      1.05031954      0.57440880
    H     -4.97744923      1.67790094     -1.04624356
    H     -3.79810475      0.39877872     -1.41637320
    H     -3.33991971      2.11048320     -1.51849209
    H     -4.40954537      2.87533753      1.37683049
