64
Energy:    -59.73785020
    H      4.29397066     -0.62165786     -2.11545966
    O      4.37649850     -0.88345386     -3.08558492
    S      3.22937432     -0.03045284     -3.89734497
    C      1.78832521     -0.37004209     -2.87083067
    O      3.07094508     -0.67871216     -5.20914375
    O      3.52302089      1.41406119     -3.79139265
    C      1.94999157     -0.39232185     -1.47416800
    C      0.51327197     -0.50352844     -3.41234856
    N      3.10547981     -0.32129780     -0.71898291
    C      0.80990700     -0.56066322     -0.64697132
    H      0.39114212     -0.47145337     -4.49781689
    C     -0.63095251     -0.67769956     -2.57649883
    C      2.71077976     -0.44323824      0.55190945
    N      1.33275485     -0.59769974      0.63715617
    C     -0.48503301     -0.65356479     -1.16950522
    C     -1.96550563     -0.88599710     -3.19260928
    C      3.59956567     -0.41973654      1.71305944
    H      0.79852015     -0.65142075      1.49941155
    H     -1.36209117     -0.74811027     -0.52257853
    C     -2.09843365     -1.72029276     -4.33972301
    C     -3.10186524     -0.25806345     -2.64109577
    C      4.91557990      0.06326766      1.55854251
    C      3.17088721     -0.86972547      2.98232172
    H     -1.20218030     -2.19724156     -4.74641056
    C     -3.33202483     -1.94893556     -4.95417339
    H     -3.00445100      0.41694529     -1.78504982
    C     -4.33061763     -0.48983534     -3.26470011
    H      5.24371817      0.41013190      0.57398704
    C      5.77518353      0.09278988      2.66113356
    H      2.16663115     -1.28877078      3.11066423
    C      4.02810882     -0.84695787      4.09459270
    H     -3.41826243     -2.59365683     -5.83323570
    C     -4.47050066     -1.32768408     -4.41187238
    N     -5.61931271     -0.04325040     -3.00624726
    H      6.79514686      0.46941873      2.54073616
    C      5.33742826     -0.35412038      3.91657075
    C      3.56520640     -1.33743529      5.44732596
    N     -5.79958576     -1.38156845     -4.81744145
    H     -5.90308209      0.57977354     -2.25538034
    C     -6.45552346     -0.60330679     -3.96646464
    H      6.01947585     -0.32170401      4.77356157
    H      4.20172222     -2.16297547      5.81013724
    H      3.61664032     -0.53275422      6.20185888
    H      2.52671781     -1.70283124      5.41284071
    C     -7.92203721     -0.32821631     -3.99726457
    H     -8.36419710     -0.88028605     -4.83799915
    H     -8.13108751      0.74721314     -4.13640289
    H     -8.41657927     -0.65302465     -3.06440354
    C     -0.74463700      3.49847063      2.46605499
    C     -1.04286196      2.00702608      2.41002791
    O     -1.19166822      1.63641107      1.03361256
    C      0.04684198      1.13854014      3.07641481
    C      0.20110386      1.39660236      4.56758253
    O     -0.25953986     -0.25057180      2.89325590
    H     -1.49350204      4.05646953      1.89389996
    H      0.22771982      3.71900757      2.01413611
    H     -0.75229957      3.87166205      3.49296659
    H     -2.01433970      1.81223770      2.87814058
    H     -0.31810330      1.36607471      0.70057413
    H      1.00852978      1.30277619      2.57725842
    H     -0.75257500      1.25647840      5.08854404
    H      0.56328892      2.40869840      4.76467028
    H      0.90813875      0.68458723      5.00718477
    H     -1.22876731     -0.34438415      2.88896750
