64
Energy:    -59.63134302
    H      2.90753146     -1.65806237      3.47917053
    O      2.76836259     -1.41813587      4.44847869
    S      1.14591853     -1.45922624      4.71010031
    C      0.57028848     -0.46432429      3.32283856
    O      0.90376388     -0.74206636      5.97232011
    O      0.64947738     -2.83654336      4.50855937
    C      1.19800135     -0.62653241      2.07505489
    C     -0.53652550      0.37300070      3.42613749
    N      2.32027623     -1.36115766      1.74139814
    C      0.69503987      0.07543172      0.94959404
    H     -1.02943041      0.48478809      4.39502052
    C     -1.03657891      1.08151227      2.29203523
    C      2.52569181     -1.13066717      0.44120447
    N      1.57050911     -0.26206692     -0.07186241
    C     -0.44187269      0.88819484      1.02299666
    C     -2.17624865      2.01873347      2.45568520
    C      3.60926476     -1.70847803     -0.35300347
    H      1.48838119      0.01398233     -1.04594085
    H     -0.84349730      1.39818293      0.14248895
    C     -2.24278794      2.86711315      3.59823210
    C     -3.19267876      2.06930518      1.47890819
    C      4.31903970     -2.81447601      0.15890473
    C      3.96062001     -1.18437900     -1.61757917
    H     -1.44082295      2.80997898      4.33967182
    C     -3.29301815      3.76672142      3.79646296
    H     -3.17201122      1.39320363      0.61844288
    C     -4.24073284      2.96953562      1.68771625
    H      4.04425644     -3.21681049      1.13868028
    C      5.35627530     -3.37764347     -0.59108307
    H      3.44923619     -0.29876232     -2.01098824
    C      5.00297228     -1.74124213     -2.37645940
    H     -3.32907959      4.41292147      4.67792656
    C     -4.31080377      3.82465809      2.82851318
    N     -5.38252645      3.27415913      0.95937370
    H      5.90495213     -4.23670637     -0.19405073
    C      5.69412502     -2.85029518     -1.84616966
    C      5.37850460     -1.17027795     -3.72468393
    N     -5.45358895      4.61531923      2.77603484
    H     -5.66645302      2.85471297      0.07850162
    C     -6.07214466      4.26011154      1.65740920
    H      6.50610211     -3.30348344     -2.42581319
    H      6.43351930     -0.84619638     -3.73938468
    H      5.25960043     -1.92348856     -4.52344082
    H      4.75513963     -0.30025307     -3.98475088
    C     -7.36287702      4.82403961      1.16417385
    H     -7.70973819      5.58232610      1.87958276
    H     -8.14008594      4.04437172      1.07657085
    H     -7.24666710      5.30127101      0.17470558
    C      1.02070302     -1.58105133     -4.39413485
    C      0.51518093     -1.18556300     -3.01409122
    O      0.94799419      0.15517594     -2.75120384
    C     -1.01983738     -1.28279463     -2.87246214
    C     -1.55626322     -2.69676325     -3.03651712
    O     -1.42029449     -0.80042774     -1.58249885
    H      2.09777662     -1.39759387     -4.47015330
    H      0.54142689     -0.97866257     -5.17244531
    H      0.83939236     -2.63853546     -4.60085144
    H      1.00091934     -1.80995593     -2.25578214
    H      0.25241629      0.76044120     -3.06255148
    H     -1.50208800     -0.62355433     -3.60308555
    H     -1.07599593     -3.38093907     -2.32814873
    H     -1.39608935     -3.07197523     -4.05038116
    H     -2.63040297     -2.72481367     -2.82309035
    H     -0.71151807     -1.01528722     -0.95028655
