64
Energy:    -59.63133288
    H      1.41560511      3.00462092      3.50368758
    O      1.18987429      2.83722109      4.47194060
    S      1.36681466      1.22160486      4.71879137
    C      0.42099666      0.57731188      3.32739285
    O      0.67464504      0.90909049      5.97950228
    O      2.78042471      0.84379149      4.51133368
    C      0.52797418      1.22752840      2.08518784
    C     -0.32076149     -0.59646727      3.42151173
    N      1.16568866      2.41019619      1.76096701
    C     -0.13153272      0.67777651      0.95593609
    H     -0.38925366     -1.10564309      4.38599855
    C     -0.98705130     -1.14379101      2.28365207
    C      0.91652244      2.60727004      0.46292884
    N      0.12983115      1.58749156     -0.05788464
    C     -0.84635407     -0.52367509      1.01986152
    C     -1.82550402     -2.35919589      2.43792456
    C      1.40038089      3.74239514     -0.32201319
    H     -0.14013278      1.49131273     -1.03238251
    H     -1.32258346     -0.95860297      0.13627377
    C     -2.66331797     -2.50660719      3.58069606
    C     -1.79273933     -3.36751137      1.45202022
    C      2.44413722      4.53747741      0.19517044
    C      0.84650571      4.06004419     -1.58280793
    H     -2.67204884     -1.70934314      4.32932068
    C     -3.47169858     -3.63005606      3.77032049
    H     -1.12226544     -3.28272812      0.59108030
    C     -2.60190283     -4.48893848      1.65224181
    H      2.86976857      4.28850666      1.17199720
    C      2.91735314      5.62480973     -0.54595850
    H      0.00599978      3.48000227     -1.97992522
    C      1.31299605      5.15202800     -2.33277600
    H     -4.11105212     -3.72786866      4.65208732
    C     -3.44614410     -4.64041659      2.79323833
    N     -2.81138591     -5.64562318      0.91388664
    H      3.72828945      6.23976192     -0.14485238
    C      2.36138517      5.92864460     -1.79738369
    C      0.71025059      5.49060222     -3.67694839
    N     -4.13867510     -5.84474650      2.73121196
    H     -2.37126305     -5.88561647      0.03004271
    C     -3.73503856     -6.42142374      1.60665520
    H      2.74412708      6.78080163     -2.37010528
    H      0.29914825      6.51494243     -3.68174372
    H      1.46933290      5.44219689     -4.47752816
    H     -0.10512582      4.79908390     -3.94176103
    C     -4.19005833     -7.75028906      1.10231407
    H     -4.91544130     -8.16567986      1.81532952
    H     -3.34835113     -8.45882800      1.00685964
    H     -4.67709606     -7.66550137      0.11443387
    C      1.48241944      1.18852714     -4.38632371
    C      1.13300476      0.63939670     -3.01051517
    O     -0.23873229      0.95630956     -2.74233292
    C      1.35837770     -0.88333733     -2.88291383
    C      2.81191999     -1.29826285     -3.05328289
    O      0.91345091     -1.33422653     -1.59613954
    H      1.20949390      2.24714463     -4.45238167
    H      0.92078546      0.66758460     -5.16832828
    H      2.55098294      1.09805916     -4.59576488
    H      1.71599045      1.16879613     -2.24847520
    H     -0.78433088      0.21540977     -3.05935290
    H      0.74042452     -1.41242057     -3.61720178
    H      3.45484749     -0.76887338     -2.34129271
    H      3.17063127     -1.09823129     -4.06603834
    H      2.92998194     -2.36817089     -2.84963573
    H      1.06947868     -0.61566492     -0.95774661
