64
Energy:    -59.63128849
    H      0.73477121      3.26543177      3.47916486
    O      0.54548052      3.06236037      4.44840273
    S      1.05855332      1.52270249      4.71045029
    C      0.27585947      0.68141639      3.32289740
    O      0.44277844      1.08177325      5.97241649
    O      2.52091157      1.45019212      4.50963788
    C      0.24825835      1.32899419      2.07502714
    C     -0.20170896     -0.62169414      3.42610762
    N      0.62320325      2.61686766      1.74141022
    C     -0.27562758      0.64280192      0.94938524
    H     -0.16512492     -1.12564680      4.39506548
    C     -0.73270198     -1.30701859      2.29182071
    C      0.34340467      2.74585438      0.44106405
    N     -0.20806178      1.57855793     -0.07214329
    C     -0.72089899     -0.68192362      1.02271749
    C     -1.29624296     -2.67072416      2.45534645
    C      0.57990525      3.95085764     -0.35316301
    H     -0.44760375      1.41927020     -1.04632195
    H     -1.09090134     -1.21509604      0.14208736
    C     -2.08875209     -2.98203835      3.59753809
    C     -1.04723674     -3.65770935      1.47880298
    C      1.43009879      4.95279043      0.15905141
    C     -0.02334300      4.13366282     -1.61805660
    H     -2.26872251     -2.19827512      4.33880110
    C     -2.64246206     -4.24921451      3.79563871
    H     -0.40623290     -3.44055583      0.61862891
    C     -1.60218261     -4.92298481      1.68747998
    H      1.89466686      4.80761942      1.13907228
    C      1.66610758      6.10920486     -0.59095027
    H     -0.72077293      3.38585434     -2.01172520
    C      0.20514623      5.29312833     -2.37695476
    H     -3.25038232     -4.47235423      4.67682804
    C     -2.40010803     -5.23964634      2.82791958
    N     -1.55965368     -6.10404504      0.95929111
    H      2.32724696      6.88492426     -0.19367942
    C      1.06369195      6.27814548     -1.84635279
    C     -0.44994411      5.48535788     -3.72552380
    N     -2.82246398     -6.56354674      2.77538206
    H     -1.07513287     -6.25317168      0.07867438
    C     -2.30152051     -7.05149969      1.65706778
    H      1.26023006      7.18701996     -2.42600178
    H     -1.06804682      6.39970015     -3.74063187
    H      0.30554348      5.59155629     -4.52392056
    H     -1.09981908      4.63502097     -3.98581531
    C     -2.46359985     -8.45071789      1.16390988
    H     -3.08785449     -9.00386167      1.87907357
    H     -1.49087343     -8.96630771      1.07684405
    H     -2.95347578     -8.47908276      0.17420335
    C      1.21613406      1.43751105     -4.39369713
    C      0.98486955      0.83867154     -3.01370003
    O     -0.42395138      0.86101818     -2.75151269
    C      1.52615965     -0.60098743     -2.87163994
    C      3.03523233     -0.70102696     -3.03493643
    O      1.18116120     -1.12473075     -1.58178801
    H      0.72610866      2.41401782     -4.47006877
    H      0.78039451      0.80309426     -5.17215161
    H      2.28056294      1.57296836     -4.59990205
    H      1.43977597      1.48569381     -2.25523887
    H     -0.79949284      0.01894526     -3.06295099
    H      1.03689310     -1.25484956     -3.60243167
    H      3.54893729     -0.04178068     -2.32638823
    H      3.34779742     -0.43835607     -4.04867558
    H      3.37570305     -1.72010567     -2.82122568
    H      1.17930854     -0.38403360     -0.94966040
