64
Energy:    -59.63127339
    H     -0.41867825     -3.30072437      3.49820747
    O     -0.25732718     -3.07300925      4.46702255
    S     -0.92698034     -1.59231650      4.71516084
    C     -0.22573521     -0.68437246      3.32607197
    O     -0.36760328     -1.08240870      5.97739986
    O     -2.38777423     -1.67127018      4.50558380
    C     -0.12406341     -1.33385326      2.08303676
    C      0.11525260      0.66144280      3.42266189
    N     -0.36306649     -2.65550617      1.75652012
    C      0.33395436     -0.60498008      0.95549537
    H      0.02111920      1.16531541      4.38777188
    C      0.58048368      1.39012418      2.28652216
    C     -0.06328541     -2.76364743      0.45872901
    N      0.36902702     -1.54938616     -0.05968543
    C      0.64079228      0.75883321      1.02187178
    C      1.00040431      2.80541345      2.44347738
    C     -0.17013483     -3.99169657     -0.32818935
    H      0.59718140     -1.37276801     -1.03360976
    H      0.95984854      1.32133421      0.13955680
    C      1.74961305      3.20370891      3.58787066
    C      0.65786634      3.75530803      1.45851594
    C     -0.91652164     -5.07206840      0.18636428
    C      0.45667459     -4.12001400     -1.58831894
    H      2.00416769      2.44735645      4.33571950
    C      2.16941734      4.52219735      3.78003362
    H      0.04793408      3.46803440      0.59631092
    C      1.07902745      5.07210145      1.66127541
    H     -1.39972145     -4.96884359      1.16268471
    C     -1.02813685     -6.25144608     -0.55667497
    H      1.07636725     -3.30729615     -1.98337805
    C      0.35290809     -5.30171462     -2.34019005
    H      2.74569427      4.81217450      4.66302351
    C      1.83308760      5.47625929      2.80390909
    N      0.92043289      6.23781492      0.92443698
    H     -1.60889584     -7.08818721     -0.15760945
    C     -0.40363531     -6.36599545     -1.80741766
    C      1.03278206     -5.43464358     -3.68363163
    N      2.11801428      6.83608290      2.74429748
    H      0.42878992      6.33078053      0.04005607
    C      1.55696188      7.26080335      1.61960208
    H     -0.50241127     -7.29398525     -2.38165736
    H      1.74132682     -6.28095291     -3.68871621
    H      0.29721871     -5.62286954     -4.48550103
    H      1.59382764     -4.52393807     -3.94632027
    C      1.57807063      8.66601306      1.11738093
    H      2.13786520      9.28484062      1.83208611
    H      0.55824360      9.07868869      1.02114347
    H      2.06874045      8.73793658      0.13027803
    C     -1.03466467     -1.58316333     -4.39010882
    C     -0.87468564     -0.95478966     -3.01314213
    O      0.52732815     -0.83102117     -2.74285212
    C     -1.56140684      0.42275937     -2.88443063
    C     -3.07172512      0.36665197     -3.05695502
    O     -1.28003358      0.98749285     -1.59642668
    H     -0.44676970     -2.50482687     -4.45673335
    H     -0.66122999     -0.91255256     -5.17060400
    H     -2.07830311     -1.82826595     -4.60134682
    H     -1.26576871     -1.64003289     -2.25265758
    H      0.81665908      0.04303356     -3.05817410
    H     -1.13702073      1.11850604     -3.61710178
    H     -3.51972834     -0.33709854     -2.34662599
    H     -3.34931590      0.06673710     -4.07053996
    H     -3.51608427      1.34687616     -2.85245692
    H     -1.20637483      0.25502365     -0.95902236
