64
Energy:    -59.63124207
    H     -1.67221014      2.89937977      3.47919926
    O     -1.67370270      2.62181262      4.44844910
    S     -0.25300688      1.83729587      4.71039538
    C     -0.25859847      0.68817533      3.32289197
    O     -0.40690776      1.09581409      5.97240778
    O      0.87148731      2.77495429      4.50943641
    C     -0.71785464      1.14562763      2.07504577
    C      0.27329384     -0.59372107      3.42610639
    N     -1.31490951      2.34676495      1.74143428
    C     -0.63820328      0.28595478      0.94943293
    H      0.64179961     -0.93948012      4.39504404
    C      0.34712995     -1.45757234      2.29184927
    C     -1.60819828      2.25195290      0.44111994
    N     -1.22274331      1.01982585     -0.07207145
    C     -0.06791578     -0.98995137      1.02276548
    C      0.85686941     -2.84228657      2.45538568
    C     -2.25094649      3.29831139     -0.35309076
    H     -1.29104411      0.74031960     -1.04623173
    H      0.02122410     -1.63280594      0.14215428
    C      0.48515640     -3.60822495      3.59764521
    C      1.70873402     -3.39938544      1.47878517
    C     -2.30466523      4.61127170      0.15907282
    C     -2.81855822      3.02388687     -1.61791886
    H     -0.17824721     -3.15379646      4.33895175
    C      0.93671397     -4.91529068      3.79575870
    H      2.03287062     -2.80534787      0.61855506
    C      2.15809573     -4.70589051      1.68747524
    H     -1.86456523      4.81938045      1.13904309
    C     -2.91484395      5.62156800     -0.59091407
    H     -2.82470149      2.00132976     -2.01154330
    C     -3.43633505      4.03133073     -2.37680137
    H      0.64096471     -5.49130984      4.67700061
    C      1.78602326     -5.47943168      2.82798308
    N      2.98966438     -5.54561833      0.95924330
    H     -2.95430160      6.64005730     -0.19368286
    C     -3.47244696      5.33751253     -1.84625162
    C     -4.04846443      3.72870147     -3.72529948
    N      2.37259102     -6.73920740      2.77544362
    H      3.44694124     -5.32697644      0.07857389
    C      3.08624021     -6.74505624      1.65706192
    H     -3.94388595      6.13903454     -2.42589007
    H     -5.12261826      3.98221483     -3.74031651
    H     -3.56494358      4.31873015     -4.52376723
    H     -3.95014460      2.66297997     -3.98555491
    C      3.91520624     -7.88385690      1.16387394
    H      3.83106161     -8.71362771      1.87908096
    H      4.97990971     -7.60382764      1.07669524
    H      3.57409385     -8.23672952      0.17421478
    C     -0.08025517      1.88104916     -4.39376874
    C      0.15562140      1.28401836     -3.01376858
    O     -0.89550328      0.34575378     -2.75144337
    C      1.52929012      0.59215464     -2.87180788
    C      2.70679600      1.54122739     -3.03525451
    O      1.63063157     -0.02672994     -1.58193937
    H     -1.10235714      2.26706738     -4.47006100
    H      0.02916395      1.11919940     -5.17220139
    H      0.61068069      2.70197805     -4.60007288
    H      0.05175287      2.06812570     -2.25533070
    H     -0.60105125     -0.52798642     -3.06287243
    H      1.61252894     -0.22026604     -3.60257320
    H      2.63787774      2.37416754     -2.32673494
    H      2.75854948      1.94615962     -4.04901556
    H      3.64778219      1.02256083     -2.82160998
    H      1.12738378      0.51672819     -0.94978755
