64
Energy:    -59.60468363
    H      1.51735510     -4.47693018     -0.98085352
    O      2.38340534     -4.65097066     -1.46681432
    S      3.47554256     -3.57605593     -0.87162223
    C      2.52710684     -2.04952881     -0.99755726
    O      4.59848214     -3.54516848     -1.82252110
    O      3.69958040     -3.84572145      0.56405272
    C      1.15850599     -2.08181444     -0.67632782
    C      3.12898283     -0.83113439     -1.29769278
    N      0.34546578     -3.16200114     -0.38881381
    C      0.41804344     -0.87181464     -0.67502052
    H      4.19593174     -0.80941024     -1.53292477
    C      2.37910305      0.38373376     -1.30007528
    C     -0.87735275     -2.65281551     -0.21198100
    N     -0.87699559     -1.27424302     -0.38407326
    C      1.01320957      0.36849626     -0.93182423
    C      3.03999372      1.65381828     -1.69265754
    C     -2.07080990     -3.43041187      0.11932843
    H     -1.67629667     -0.66322167     -0.24426022
    H      0.44188628      1.30062826     -0.89435900
    C      3.95629878      1.67284509     -2.78335091
    C      2.75954044      2.84180163     -0.98567628
    C     -1.91877843     -4.75069017      0.59135984
    C     -3.36903068     -2.89048304     -0.02343594
    H      4.15462518      0.73865077     -3.31635430
    C      4.60181115      2.84237348     -3.19211873
    H      2.08866506      2.82984913     -0.12096571
    C      3.41270962      4.00563931     -1.39954205
    H     -0.91191053     -5.16516284      0.69984226
    C     -3.05165720     -5.50457984      0.91343599
    H     -3.50741856     -1.88246259     -0.43006177
    C     -4.51269748     -3.64116818      0.29435657
    H      5.30132321      2.84134482     -4.03267499
    C      4.32881273      4.03155394     -2.49391197
    N      3.38443638      5.31663396     -0.94405919
    H     -2.93265199     -6.52788666      1.28133665
    C     -4.33498124     -4.95686149      0.77003090
    C     -5.89842206     -3.05982278      0.13144892
    N      4.82349124      5.31700587     -2.68565012
    H      2.83577409      5.67405169     -0.16707318
    C      4.24846293      6.05561756     -1.74548938
    H     -5.21442093     -5.55659794      1.02998287
    H     -6.50563191     -3.66751143     -0.56159632
    H     -6.43562882     -3.03419910      1.09593288
    H     -5.86346906     -2.03226242     -0.26359538
    C      4.47331847      7.51543663     -1.53182074
    H      5.18946992      7.87316404     -2.28433598
    H      4.88804730      7.72037981     -0.52902052
    H      3.53628943      8.09102356     -1.63659800
    C     -4.08906262      0.24055015      2.46407934
    C     -2.69645544      0.24941051      1.85003477
    O     -2.83158702      0.52168252      0.44945439
    C     -1.74665767      1.27984317      2.49956286
    C     -1.46630230      1.00502279      3.96920520
    O     -0.49396781      1.29369034      1.80126109
    H     -4.74656091     -0.43175353      1.90262875
    H     -4.54157386      1.23630798      2.41885848
    H     -4.06765357     -0.09337100      3.50423141
    H     -2.26215892     -0.75436774      1.91827512
    H     -2.77653801      1.48537832      0.32547046
    H     -2.16280480      2.28778913      2.39074875
    H     -1.06546843     -0.00526932      4.10770095
    H     -2.36847004      1.11101909      4.57683844
    H     -0.70940418      1.69948948      4.34990881
    H     -0.32285130      0.39146123      1.47734324
