64
Energy:    -58.56145656
    H     -3.29682655      0.27293858      3.53433870
    O     -3.05121218      0.12866097      4.50147289
    S     -1.60116695      0.86892988      4.72913445
    C     -0.67631319      0.20244937      3.33409889
    O     -1.05170708      0.34224346      5.98883730
    O     -1.75126722      2.32301683      4.51193396
    C     -1.33376813      0.06237798      2.09901508
    C      0.68507011     -0.07409974      3.41762799
    N     -2.66870705      0.23673558      1.78590247
    C     -0.59640841     -0.36792936      0.96608868
    H      1.19441718      0.04981189      4.37648015
    C      1.42248512     -0.51167591      2.27614816
    C     -2.77670254     -0.07605122      0.49117223
    N     -1.54910493     -0.45393113     -0.03825092
    C      0.78101072     -0.60971084      1.01900627
    C      2.85764426     -0.86341002      2.41972175
    C     -4.01692286     -0.03221128     -0.28258073
    H     -1.37252973     -0.67969116     -1.01274084
    H      1.34830432     -0.90749797      0.13233564
    C      3.30330060     -1.58572335      3.56394327
    C      3.77952810     -0.48274312      1.42222293
    C     -5.12565623      0.66567426      0.23965302
    C     -4.12922327     -0.67236800     -1.53751897
    H      2.56799629     -1.87089019      4.32167174
    C      4.64215046     -1.94168050      3.74380308
    H      3.45441073      0.10747800      0.55973890
    C      5.11686438     -0.84006812      1.61270528
    H     -5.03473041      1.15939749      1.21192298
    C     -6.31700936      0.71684772     -0.49079614
    H     -3.29250899     -1.25556005     -1.93801521
    C     -5.32262230     -0.62920000     -2.27672752
    H      4.96860582     -2.49802488      4.62684376
    C      5.56858608     -1.56696222      2.75513011
    N      6.26569876     -0.63138637      0.86197065
    H     -7.17583721      1.26004322     -0.08579814
    C     -6.41556460      0.07970491     -1.73651557
    C     -5.43793114     -1.32310804     -3.61460999
    N      6.93961393     -1.78784598      2.68198645
    H      6.32571655     -0.14153789     -0.02624742
    C      7.32510361     -1.21455560      1.54935993
    H     -7.35338079      0.13097628     -2.30091352
    H     -6.24985514     -2.07077642     -3.60610094
    H     -5.66939055     -0.60234567     -4.41860325
    H     -4.50467123     -1.84225924     -3.88418369
    C      8.72419086     -1.17259342      1.03159544
    H      9.37649989     -1.69804221      1.74259298
    H      9.08719281     -0.13507957      0.92480315
    H      8.80844293     -1.66559060      0.04662978
    C      0.17267850      3.12205681     -3.03895531
    C      0.35860859      1.61954498     -2.88283932
    O      0.92958143      1.37566848     -1.59112253
    C     -0.95346171      0.81987165     -3.04028174
    C     -1.57637355      0.94153207     -4.42272653
    O     -0.70969838     -0.56958008     -2.78133711
    H      1.10951723      3.64480618     -2.81852556
    H     -0.57351393      3.49824911     -2.33183353
    H     -0.13446522      3.38581407     -4.05383108
    H      1.10052282      1.26725482     -3.60830188
    H      0.19936795      1.24334968     -0.96152583
    H     -1.67813405      1.14398787     -2.28478676
    H     -0.86467513      0.63995679     -5.19930666
    H     -1.90578205      1.96349599     -4.62629414
    H     -2.44134999      0.27519898     -4.51177695
    H      0.19536204     -0.77394373     -3.07684028
