64
Energy:    -59.76443741
    H      0.32989195      3.36047999      3.44939731
    O      0.19112998      3.13914588      4.42317723
    S      0.92426638      1.69044434      4.68053660
    C      0.24215411      0.73638953      3.31299235
    O      0.40339476      1.17478243      5.95683654
    O      2.37762421      1.82624267      4.44948501
    C      0.09712674      1.36474274      2.06341710
    C     -0.04198954     -0.62084334      3.43132374
    N      0.27726446      2.69064014      1.71693695
    C     -0.34579749      0.60297593      0.95169975
    H      0.08577541     -1.10769183      4.40129316
    C     -0.49224443     -1.38282648      2.31110848
    C     -0.04421561      2.76933798      0.42222377
    N     -0.43330919      1.53170506     -0.07471581
    C     -0.59549303     -0.77124127      1.03957034
    C     -0.85158068     -2.81189877      2.49177902
    C      0.00150942      3.99025379     -0.38153976
    H     -0.66716786      1.33309866     -1.04303529
    H     -0.90309728     -1.35788167      0.16898624
    C     -1.56827922     -3.22535894      3.65151300
    C     -0.48370059     -3.75989957      1.51415961
    C      0.70982561      5.10690080      0.10881686
    C     -0.64701247      4.07624515     -1.63425954
    H     -1.84352183     -2.47025109      4.39326676
    C     -1.93099519     -4.55725105      3.86616279
    H      0.10222104     -3.45933136      0.63991960
    C     -0.84769845     -5.09001407      1.73940170
    H      1.21000626      5.03637319      1.07947858
    C      0.76290213      6.27996275     -0.65052861
    H     -1.23811977      3.23375547     -2.01029720
    C     -0.60199204      5.25119090     -2.40235435
    H     -2.48290106     -4.85887155      4.76074537
    C     -1.56902711     -5.50955259      2.89751844
    N     -0.65138100     -6.25788085      1.01516581
    H      1.31418054      7.14491577     -0.27024136
    C      0.11737774      6.35241668     -1.89372196
    C     -1.30484426      5.33852415     -3.73768414
    N     -1.79869849     -6.88054837      2.85906541
    H     -0.16833633     -6.34232606      0.12520972
    C     -1.23594516     -7.29677286      1.73204595
    H      0.17022331      7.27602164     -2.48094783
    H     -2.04752127      6.15504003     -3.74348782
    H     -0.58852924      5.54606328     -4.55211481
    H     -1.83154948      4.40227687     -3.98096306
    C     -1.20616524     -8.70816586      1.24792927
    H     -1.73038567     -9.33987723      1.97817216
    H     -0.17165854     -9.08006558      1.14258935
    H     -1.70676814     -8.81307236      0.26880040
    C      3.04111107     -0.27769798     -3.09029828
    C      1.53563351     -0.39511911     -2.89994709
    O      1.29551669     -0.95721862     -1.60364232
    C      0.79341363      0.95247002     -3.03745047
    C      0.91177391      1.57224063     -4.42159252
    O     -0.59944411      0.77188126     -2.74696123
    H      3.52537227     -1.23793366     -2.88302661
    H      3.46711842      0.44895140     -2.39112490
    H      3.29535024      0.01932525     -4.11060100
    H      1.13327307     -1.11854631     -3.61800012
    H      1.21117372     -0.22312157     -0.97031793
    H      1.16753557      1.65989416     -2.28874634
    H      0.56027437      0.87679359     -5.19187850
    H      1.94280886      1.85505516     -4.64818219
    H      0.28383615      2.46695886     -4.49430748
    H     -0.85169575     -0.12223617     -3.03875591
