64
Energy:    -57.07912107
    H      1.07741755     -4.71918719      0.96367734
    O      1.42985236     -5.32906722      0.24234035
    S      2.49966670     -4.44206147     -0.63582654
    C      1.51690719     -2.96384547     -0.94361898
    O      2.71525515     -5.16897149     -1.89728579
    O      3.63724714     -4.05149333      0.22291804
    C      0.70719972     -2.46872434      0.09393963
    C      1.61830561     -2.24619732     -2.13169326
    N      0.42235183     -3.01918392      1.32939822
    C      0.00262483     -1.25235897     -0.09688887
    H      2.25988802     -2.62790932     -2.92972457
    C      0.90367282     -1.02493826     -2.32157813
    C     -0.44046352     -2.17737012      1.90622074
    N     -0.72539031     -1.10201051      1.07405704
    C      0.12451459     -0.49405682     -1.26678746
    C      0.98242128     -0.32352751     -3.62765380
    C     -1.01913736     -2.35026146      3.23813934
    H     -1.30847966     -0.30691276      1.31819505
    H     -0.39515925      0.46042802     -1.39161453
    C      0.95384279     -1.07040088     -4.84048209
    C      1.08472614      1.08280162     -3.66706292
    C     -0.43199208     -3.27643611      4.12500063
    C     -2.15060293     -1.61305218      3.65478085
    H      0.87174853     -2.15945228     -4.78240823
    C      1.02315520     -0.45683346     -6.09360012
    H      1.14854411      1.66250595     -2.74088196
    C      1.15715269      1.68711513     -4.92483578
    H      0.44354513     -3.84566205      3.79826613
    C     -0.97436992     -3.45019877      5.40215755
    H     -2.64571615     -0.92170172      2.96376823
    C     -2.70424204     -1.78322616      4.93424111
    H      0.99812799     -1.04378586     -7.01594145
    C      1.12516141      0.94434059     -6.14336955
    N      1.26855806      3.00968125     -5.33150358
    H     -0.51708402     -4.16740055      6.09003924
    C     -2.09609305     -2.71079027      5.80526214
    C     -3.91946271     -0.99707637      5.37006359
    N      1.20868840      1.79843438     -7.23762913
    H      1.32019722      3.82480614     -4.72702875
    C      1.29919765      3.01753563     -6.72216116
    H     -2.50884027     -2.85316195      6.81027111
    H     -4.74915383     -1.66956117      5.64877106
    H     -3.69535644     -0.37495913      6.25449760
    H     -4.27987582     -0.33080721      4.57047008
    C      1.42348946      4.28230982     -7.50458291
    H      1.42330406      4.03340598     -8.57470806
    H      2.36180291      4.81517629     -7.26956972
    H      0.58236905      4.96955171     -7.30329449
    C     -1.36562404      2.69726798      3.67969118
    C     -0.80305869      2.01754689      2.43953657
    O     -1.89377337      1.41559321      1.73100905
    C     -0.03484614      2.98065083      1.50783153
    C      1.20244097      3.58901803      2.15046981
    O      0.37416826      2.28604580      0.32154316
    H     -1.98289548      1.99481217      4.24982695
    H     -2.01284197      3.53627392      3.40487672
    H     -0.57016508      3.06139715      4.33431550
    H     -0.15100695      1.19037886      2.74196440
    H     -2.23054696      2.06695206      1.09114406
    H     -0.70205588      3.78249818      1.17190596
    H      1.87911278      2.80669679      2.51189440
    H      0.94082575      4.24103314      2.98760408
    H      1.76395494      4.17720137      1.41640141
    H      0.55679562      1.36112466      0.56524200
