64
Energy:    -56.47921857
    H     -4.68727583      1.54930851     -0.13615507
    O     -5.41775771      0.97394363     -0.52582477
    S     -5.13157707     -0.55859021     -0.00438478
    C     -3.38417393     -0.71726620     -0.41313801
    O     -5.92727213     -1.45159730     -0.86203490
    O     -5.25239852     -0.60837315      1.46768819
    C     -2.54153700      0.38726477     -0.19571372
    C     -2.83263311     -1.92405867     -0.83298997
    N     -2.86020695      1.67974096      0.17638407
    C     -1.14736316      0.25011802     -0.41899849
    H     -3.48987234     -2.78341922     -0.98700957
    C     -1.42958290     -2.05653229     -1.06131178
    C     -1.70147569      2.34536283      0.18707865
    N     -0.64451595      1.51939060     -0.17442375
    C     -0.56778362     -0.96551107     -0.79962361
    C     -0.88714407     -3.33940441     -1.57513203
    C     -1.54803414      3.75839820      0.53138773
    H      0.33547035      1.78649298     -0.18218050
    H      0.51248380     -1.07128632     -0.93570404
    C     -1.59063302     -4.05708414     -2.58489838
    C      0.32553000     -3.84685367     -1.06356790
    C     -2.60316482      4.42069487      1.19254154
    C     -0.37018714      4.47310780      0.21650900
    H     -2.52737435     -3.64083960     -2.96621343
    C     -1.12062503     -5.26678734     -3.10189418
    H      0.85251982     -3.32412410     -0.25921940
    C      0.78568880     -5.05912635     -1.58422310
    H     -3.51365724      3.86385819      1.43394467
    C     -2.46871938      5.77131758      1.52905262
    H      0.44147726      3.98633281     -0.33562506
    C     -0.22744796      5.83051300      0.54752355
    H     -1.67114525     -5.80512378     -3.87840842
    C      0.08716087     -5.78070508     -2.59859229
    N      1.90500690     -5.83609860     -1.31887031
    H     -3.28689726      6.28366167      2.04359950
    C     -1.29374685      6.46946216      1.21359311
    C      1.03209067      6.59061609      0.20033523
    N      0.77247823     -6.94478963     -2.92890168
    H      2.63571202     -5.63119879     -0.64316986
    C      1.84430383     -6.95203411     -2.14708047
    H     -1.19922615      7.52643131      1.48664082
    H      0.80829323      7.45711181     -0.44573045
    H      1.52441595      6.98171587      1.10815337
    H      1.75737649      5.95343759     -0.32987798
    C      2.89151784     -8.01504605     -2.12189282
    H      2.62699850     -8.78461452     -2.86007633
    H      2.96214630     -8.49267088     -1.12866769
    H      3.88757212     -7.61101043     -2.37671252
    C      3.19837523      2.97781294      1.79439058
    C      2.30694131      1.82210244      1.36292471
    O      2.21101409      1.84646903     -0.06683829
    C      2.81923884      0.44347536      1.83487026
    C      2.85610322      0.29513419      3.34834636
    O      1.98186487     -0.59343716      1.30509080
    H      2.84596811      3.91469972      1.34989605
    H      4.22552422      2.82912040      1.44625199
    H      3.20478706      3.09678695      2.88052228
    H      1.28921275      1.98953979      1.73310616
    H      2.92480584      1.28964041     -0.42398704
    H      3.81963564      0.26010904      1.42675626
    H      1.87001814      0.49149620      3.78379690
    H      3.58152055      0.97571177      3.80105362
    H      3.12448721     -0.73029227      3.62508560
    H      1.07568854     -0.24250413      1.24254898
