64
Energy:    -56.23594981
    H      1.40476264      4.02964827      2.45288950
    O      2.22273988      4.02714479      3.04229425
    S      3.36903526      3.16007022      2.24439226
    C      2.42027976      1.69018235      1.81431358
    O      4.40197547      2.81472789      3.23430598
    O      3.72009980      3.84951368      0.98522730
    C      1.08600477      1.85048006      1.40041274
    C      2.99840701      0.42474963      1.77867778
    N      0.29708439      2.98535276      1.38735217
    C      0.35434378      0.71595809      0.96461679
    H      4.03994714      0.30769786      2.08799804
    C      2.25705784     -0.71531539      1.34407088
    C     -0.90245842      2.58272479      0.95745363
    N     -0.91112873      1.21772564      0.69903508
    C      0.92979078     -0.55696995      0.88061120
    C      2.88588226     -2.05951868      1.38541557
    C     -2.06488839      3.45164602      0.77719140
    H     -1.69173154      0.69707720      0.30998309
    H      0.36853252     -1.41981671      0.51024835
    C      3.70039244     -2.43143632      2.49349474
    C      2.67576213     -2.96846960      0.32738025
    C     -1.87718352      4.84910740      0.74668638
    C     -3.36814441      2.92401320      0.63433007
    H      3.84556630     -1.70915381      3.30181245
    C      4.31197323     -3.68448425      2.57959832
    H      2.08537911     -2.67787499     -0.54723033
    C      3.29448312     -4.21783111      0.42072455
    H     -0.86659212      5.25356503      0.85830200
    C     -2.98000142      5.69124390      0.57320493
    H     -3.53783861      1.84347799      0.69951092
    C     -4.48207692      3.76204124      0.46299013
    H      4.93298931     -3.95601383      3.43777296
    C      4.10849357     -4.59742315      1.53016533
    N      3.31346016     -5.32642363     -0.41452003
    H     -2.83316771      6.77496926      0.54772573
    C     -4.26844246      5.15565565      0.42986646
    C     -5.87409937      3.19085269      0.31893756
    N      4.58992890     -5.89116502      1.36191255
    H      2.83862950     -5.41707307     -1.30827812
    C      4.10531086     -6.29436369      0.19457233
    H     -5.12372075      5.82623009      0.29021699
    H     -6.54405676      3.57205681      1.10896383
    H     -6.32220251      3.47301731     -0.65011543
    H     -5.87002411      2.09124575      0.38226196
    C      4.35532247     -7.62424208     -0.43487478
    H      5.00251488     -8.21086620      0.23155985
    H      4.85957046     -7.52308672     -1.41217288
    H      3.41537435     -8.18257426     -0.59319315
    C     -1.15677920     -0.08004770     -4.30157992
    C     -1.49787284     -0.69918367     -2.95368906
    O     -0.28055962     -0.84147645     -2.21077636
    C     -2.51966982      0.12616809     -2.14096560
    C     -3.87914346      0.24158472     -2.81363522
    O     -2.70947682     -0.47023263     -0.85048953
    H     -0.35748785     -0.64884301     -4.78853807
    H     -0.78731270      0.94303398     -4.17852147
    H     -2.02195030     -0.06779839     -4.96881820
    H     -1.87535545     -1.71667154     -3.10556505
    H     -0.15355245     -0.03127895     -1.68679050
    H     -2.12034568      1.12924019     -1.95292149
    H     -4.29318431     -0.74966879     -3.02933326
    H     -3.81882711      0.80737183     -3.74669840
    H     -4.59199559      0.74354677     -2.15031785
    H     -2.60982321     -1.43381758     -0.94945518
