64
Energy:    -56.17401579
    H      3.93381672     -2.67584104     -1.20807540
    O      3.98614425     -3.19935995     -2.06812236
    S      3.33858614     -2.24135094     -3.23660267
    C      1.80106173     -1.75075600     -2.43597149
    O      3.04626816     -3.11493083     -4.38445474
    O      4.16746371     -1.02794868     -3.39373933
    C      1.82534383     -1.45479576     -1.06151999
    C      0.62572300     -1.55579103     -3.15526874
    N      2.84903694     -1.60527496     -0.14505372
    C      0.64719365     -0.97297674     -0.43526239
    H      0.61588086     -1.77388484     -4.22602745
    C     -0.55922498     -1.07537236     -2.52018907
    C      2.33505996     -1.23164610      1.03055427
    N      1.00560114     -0.85044968      0.89900002
    C     -0.53193493     -0.72949724     -1.14864554
    C     -1.81235395     -0.94580488     -3.30561381
    C      3.06245334     -1.21978006      2.29922289
    H      0.42437013     -0.47505390      1.64265688
    H     -1.42538245     -0.32476798     -0.66425957
    C     -2.16812862     -1.95069853     -4.25070753
    C     -2.65088171      0.17236990     -3.11499018
    C      4.47019963     -1.30361219      2.28235357
    C      2.38833809     -1.12748804      3.53790477
    H     -1.50189807     -2.80867254     -4.37783918
    C     -3.33697102     -1.87523481     -5.01207911
    H     -2.36638069      0.96975535     -2.42132123
    C     -3.81577262      0.24084256     -3.88360819
    H      4.98822977     -1.37557850      1.32120601
    C      5.17806606     -1.29153969      3.48828738
    H      1.29335350     -1.10581449      3.57166880
    C      3.09056745     -1.11800050      4.75416047
    H     -3.59741981     -2.65574686     -5.73237097
    C     -4.17930898     -0.76473646     -4.82923717
    N     -4.84105045      1.17334231     -3.96247889
    H      6.27007637     -1.35464591      3.47410618
    C      4.49799079     -1.19693013      4.71140947
    C      2.36230704     -1.02720226      6.07557125
    N     -5.38396316     -0.44276237     -5.44486529
    H     -4.91734628      2.03341067     -3.42680514
    C     -5.74810821      0.71690056     -4.91318186
    H      5.06465339     -1.18409825      5.64917375
    H      2.59015128     -1.89699653      6.71576334
    H      2.66412344     -0.12457129      6.63560802
    H      1.27050709     -0.98887157      5.93533701
    C     -6.97990025      1.48273035     -5.26457780
    H     -7.53288172      0.92348589     -6.03176625
    H     -6.73640620      2.48175431     -5.66740752
    H     -7.63733930      1.62050026     -4.38759699
    C      0.08859795      4.26472307      2.03075468
    C     -0.66633813      2.94321004      2.04335709
    O     -0.93382501      2.57285435      0.68493689
    C      0.09718284      1.80787369      2.76018420
    C      0.33501193      2.07538707      4.23864554
    O     -0.63397202      0.57977776      2.64084458
    H     -0.44914756      5.00264935      1.42592613
    H      1.07777918      4.14448192      1.57753556
    H      0.20614908      4.67016834      3.03856115
    H     -1.64643546      3.08834892      2.51152899
    H     -0.19280877      2.02448078      0.37301805
    H      1.05812540      1.63538823      2.26237685
    H     -0.61056329      2.26923554      4.75715232
    H      0.99997031      2.92929574      4.39040302
    H      0.78349105      1.19837922      4.71805947
    H     -1.58313157      0.79713770      2.63237095
