64
Energy:    -56.09308060
    H     -3.36622398     -0.77788878      3.38720793
    O     -3.12759415     -0.89897012      4.35926045
    S     -1.92271990      0.17242643      4.67995731
    C     -0.80836595     -0.17522843      3.30772323
    O     -1.30393865     -0.25474397      5.94518109
    O     -2.42948251      1.54975401      4.50607406
    C     -1.36292026     -0.42088661      2.03909382
    C      0.57459172     -0.10250678      3.44542081
    N     -2.68593304     -0.57533878      1.66992760
    C     -0.49940988     -0.59945051      0.92785543
    H      1.00023214      0.10260013      4.43078744
    C      1.44031667     -0.28769620      2.32539617
    C     -2.66336855     -0.84648655      0.36157186
    N     -1.36149821     -0.87782084     -0.12240105
    C      0.89132836     -0.48769341      1.03694014
    C      2.91148932     -0.27172353      2.52391046
    C     -3.84478878     -1.08237650     -0.46750243
    H     -1.09776232     -1.00744772     -1.09472675
    H      1.54776940     -0.59223405      0.16812461
    C      3.48391056     -0.90897488      3.66225735
    C      3.74221035      0.37403278      1.58439870
    C     -5.11286975     -0.71140415      0.02586573
    C     -3.74461938     -1.67282246     -1.74758901
    H      2.81801425     -1.40448727      4.37443329
    C      4.86174930     -0.92304263      3.89233672
    H      3.30954536      0.90133409      0.72842245
    C      5.11854494      0.35778124      1.82496467
    H     -5.18611772     -0.25512955      1.01772622
    C     -6.25051250     -0.92982039     -0.75743519
    H     -2.77304802     -2.00712693     -2.12823402
    C     -4.88188344     -1.89909752     -2.54000562
    H      5.28634243     -1.41819087      4.77006213
    C      5.69805838     -0.28228481      2.96164476
    N      6.20328647      0.88348008      1.13652619
    H     -7.23345269     -0.63996154     -0.37470757
    C     -6.13816287     -1.51429841     -2.02757062
    C     -4.76791911     -2.53851171     -3.90488496
    N      7.08192440     -0.14625290      2.94530018
    H      6.16929566      1.41218647      0.26946265
    C      7.35022659      0.55632628      1.85236678
    H     -7.03688071     -1.67609045     -2.63321290
    H     -5.36284791     -3.46657758     -3.96015224
    H     -5.14539609     -1.86402662     -4.69359149
    H     -3.72411638     -2.79244775     -4.14810164
    C      8.71067586      0.97356417      1.40250420
    H      9.44863861      0.59833066      2.12481424
    H      8.80165861      2.07284744      1.34857450
    H      8.95350554      0.56280164      0.40620611
    C     -0.42546367      3.34399048     -3.09710773
    C      0.06314634      1.90544704     -3.00580038
    O      0.89829986      1.79399852     -1.84644029
    C     -1.08275385      0.87229022     -2.93304232
    C     -1.96198596      0.85248225     -4.17422424
    O     -0.54043323     -0.44268840     -2.74928009
    H      0.42168780      4.03610097     -3.04381182
    H     -1.08497783      3.58589706     -2.25754398
    H     -0.95859633      3.52884172     -4.03277732
    H      0.71068306      1.68591490     -3.86215477
    H      0.33476021      1.53810915     -1.09540388
    H     -1.70284671      1.06786737     -2.05088110
    H     -1.36251422      0.67627280     -5.07429250
    H     -2.50814167      1.79141544     -4.29455047
    H     -2.68872645      0.03493922     -4.11434387
    H      0.31638050     -0.47930297     -3.21052906
