64
Energy:    -59.76442415
    H     -3.40608619      0.39961653      3.39689831
    O     -3.19603178      0.28971861      4.37684249
    S     -1.75616935      1.04095728      4.63158875
    C     -0.77990517      0.32849692      3.29555602
    O     -1.25280139      0.55980971      5.92822815
    O     -1.89981676      2.48622727      4.35839455
    C     -1.39135101      0.14389161      2.04281747
    C      0.57779680      0.05830229      3.43859874
    N     -2.71407122      0.30402063      1.67502413
    C     -0.61235561     -0.32385728      0.95343088
    H      1.05140857      0.21677583      4.41058847
    C      1.35717008     -0.41700891      2.34092550
    C     -2.77404248     -0.05395131      0.38891195
    N     -1.52738713     -0.44709571     -0.08158343
    C      0.76245768     -0.56033361      1.06527618
    C      2.78647496     -0.76007288      2.54926818
    C     -3.98502646     -0.04008393     -0.43089748
    H     -1.31485141     -0.70625029     -1.04046010
    H      1.36229974     -0.88747125      0.21096098
    C      3.19057503     -1.44100176      3.73359414
    C      3.74397948     -0.41217936      1.57359600
    C     -5.11299327      0.67290626      0.02560866
    C     -4.05039480     -0.72384979     -1.66599798
    H      2.42823144     -1.70135968      4.47331774
    C      4.52230652     -1.78725344      3.97478910
    H      3.45012741      0.14684534      0.67968138
    C      5.07380942     -0.75943154      1.82539204
    H     -5.05842847      1.20042670      0.98273136
    C     -6.27674341      0.69572921     -0.74941503
    H     -3.19886746     -1.31862880     -2.01491075
    C     -5.21585841     -0.70933756     -2.44956543
    H      4.81670186     -2.31170253      4.88810040
    C      5.48404194     -1.44498642      3.00830616
    N      6.24923208     -0.57427351      1.11050109
    H     -7.15048991      1.25063974     -0.39542159
    C     -6.32871818      0.01532973     -1.97490929
    C     -5.28112337     -1.44971946     -3.76573758
    N      6.85707933     -1.66498589      2.99328791
    H      6.34131344     -0.11553042      0.20852504
    C      7.28330406     -1.13058550      1.85624979
    H     -7.24520777      0.04464669     -2.57479289
    H     -6.09197067     -2.19858835     -3.76093739
    H     -5.48367791     -0.75796970     -4.60235632
    H     -4.33800096     -1.97570231     -3.98258814
    C      8.70043262     -1.10332518      1.38903516
    H      9.32675146     -1.60210865      2.14140527
    H      9.06594926     -0.06929244      1.25948255
    H      8.82139310     -1.63014099      0.42563719
    C      0.29411217      2.95602111     -3.17031430
    C      0.42027999      1.45737968     -2.93656324
    O      0.96774304      1.25779524     -1.62718619
    C     -0.91992732      0.70118300     -3.06999853
    C     -1.52304434      0.77617002     -4.46448797
    O     -0.73269707     -0.68160899     -2.73851678
    H      1.24803959      3.45330120     -2.96474681
    H     -0.44443962      3.39566417     -2.49237609
    H      0.00810979      3.17945923     -4.20092385
    H      1.15567285      1.04082332     -3.63407248
    H      0.22635879      1.18541095     -1.00090997
    H     -1.63949623      1.09048971     -2.34086557
    H     -0.81534665      0.40878279     -5.21597290
    H     -1.81061325      1.79827465     -4.72326634
    H     -2.41209396      0.13952586     -4.53073737
    H      0.16687649     -0.93493383     -3.01203997
