64
Energy:    -59.76440741
    H      1.19205367     -3.21947291      3.39322839
    O      1.26306414     -2.96559961      4.36636602
    S      0.01258711     -1.94361957      4.67348652
    C      0.19724267     -0.78748164      3.30420846
    O      0.32298267     -1.26658633      5.94291025
    O     -1.26629710     -2.65967307      4.48428413
    C      0.54131172     -1.29571668      2.03905525
    C     -0.09272479      0.56691683      3.43965088
    N      0.90527627     -2.57792721      1.67303891
    C      0.59524646     -0.41401382      0.92906556
    H     -0.37329446      0.95440380      4.42215813
    C     -0.03249226      1.45185145      2.32094951
    C      1.18460393     -2.51214041      0.36786721
    N      1.01726311     -1.22103990     -0.11703952
    C      0.26583908      0.94197928      1.03543997
    C     -0.28092927      2.90221474      2.51776762
    C      1.61212341     -3.64138679     -0.45723381
    H      1.11518741     -0.93948567     -1.08807765
    H      0.27630076      1.60738306      0.16721629
    C      0.24566308      3.56645826      3.66278730
    C     -1.03793421      3.62231260      1.57004214
    C      1.43863959     -4.95230756      0.03312534
    C      2.19431057     -3.44897481     -1.73054356
    H      0.83109702      2.98580514      4.38129551
    C      0.04114554      4.92931817      3.89160914
    H     -1.48107900      3.11309407      0.70849690
    C     -1.24018035      4.98402055      1.80937653
    H      0.98806516     -5.09689058      1.01974454
    C      1.84151942     -6.04108925     -0.74645101
    H      2.37671364     -2.43673717     -2.10830681
    C      2.60499747     -4.53614459     -2.51914495
    H      0.45354946      5.42551215      4.77454036
    C     -0.71189959      5.65571086      2.95275467
    N     -1.92128796      5.97360558      1.11383007
    H      1.70476695     -7.05759720     -0.36608232
    C      2.41579065     -5.83758976     -2.00989135
    C      3.23436237     -4.32237230     -3.87669246
    N     -1.06275916      7.00121498      2.93343586
    H     -2.42812212      5.85793147      0.24077587
    C     -1.78604352      7.15705660      1.83221829
    H      2.72328753     -6.69940253     -2.61271589
    H      4.24471493     -4.76458778     -3.92067175
    H      2.63644225     -4.80018529     -4.67272215
    H      3.32449936     -3.25148893     -4.11803485
    C     -2.40595853      8.43574248      1.37619878
    H     -2.15926243      9.22278564      2.10202597
    H     -3.50523213      8.35350446      1.30953193
    H     -2.02683577      8.74069165      0.38444582
    C     -2.99791099     -0.97251542     -2.99034609
    C     -1.66542966     -0.25176008     -2.84375399
    O     -1.62941749      0.35296424     -1.54489695
    C     -0.44362710     -1.17831776     -3.02945095
    C     -0.34815936     -1.78555571     -4.42089695
    O      0.76390710     -0.44636258     -2.77815079
    H     -3.82392146     -0.29462007     -2.75016367
    H     -3.06541063     -1.81321556     -2.29248359
    H     -3.14507419     -1.34238625     -4.00790030
    H     -1.61886332      0.57643988     -3.55982480
    H     -1.23058386     -0.28589387     -0.92853338
    H     -0.46986344     -1.98053415     -2.28330449
    H     -0.33844778     -1.00340019     -5.18815013
    H     -1.18161068     -2.46345925     -4.62131074
    H      0.58701376     -2.34566152     -4.52973958
    H      0.61908440      0.47427583     -3.06041361
