64
Energy:    -66.93494240
    H      2.90966221      4.99659623     -4.31482085
    C      2.64286649      3.95671862     -4.10521506
    C      2.38598111      3.56419489     -2.78725792
    C      2.56084061      3.03172710     -5.15490046
    H      2.41267323      4.30651776     -1.98446387
    C      2.04073646      2.22005953     -2.51669322
    H      2.76399353      3.35750866     -6.18021908
    C      2.22010984      1.68283440     -4.90965360
    C      1.77170201      1.79371752     -1.15520765
    C      1.95712171      1.29586921     -3.58632439
    C      2.14484981      0.69276307     -6.04812437
    N      0.99579642      0.74253778     -0.77213889
    N      2.24479717      2.36549841     -0.01730055
    H      1.72540082      0.24490643     -3.38236445
    H      3.11042603      0.62556677     -6.57730981
    H      1.38930805      1.00187069     -6.78937880
    H      1.88281313     -0.31560658     -5.69334077
    H      0.44542257      0.18665384     -1.42345039
    C      0.95525218      0.64047669      0.62097119
    H      2.92108390      3.12503989     -0.00366260
    C      1.76745799      1.69322812      1.11089889
    C      0.30676761     -0.24036136      1.48705091
    C      1.96004789      1.89168633      2.47670285
    H     -0.32206242     -1.05404839      1.11239480
    C      0.47798919     -0.06200277      2.87841657
    H      2.61086266      2.66419740      2.90069671
    C      1.27563535      1.04564418      3.35661827
    C     -0.19365354     -1.05662090      3.75866643
    S      1.49662486      1.48328951      5.14940582
    C     -1.04062435     -0.64709771      4.82600246
    C     -0.03122130     -2.42576858      3.45463948
    O      0.17704958      2.12366550      5.48194256
    O      1.76353429      0.16677792      5.80609264
    O      2.65397077      2.43842335      5.11307682
    H     -1.11034116      0.41878273      5.05771875
    C     -1.73080289     -1.57574576      5.60539414
    H      0.65316030     -2.74565118      2.66140437
    C     -0.71285651     -3.34339746      4.25820944
    H     -2.37865091     -1.25089549      6.42419524
    C     -1.57634139     -2.94499524      5.31829223
    N     -0.76033639     -4.73253464      4.27883819
    N     -2.15276077     -4.05894920      5.92219725
    H     -0.23397475     -5.36306843      3.68169369
    C     -1.59726181     -5.10289437      5.32482601
    C     -1.81389179     -6.53225942      5.69863879
    H     -2.51149449     -6.56904518      6.54713587
    H     -0.87039359     -7.02120868      5.99941239
    H     -2.24591687     -7.11251085      4.86279873
    C     -3.14068065      1.61251055     -4.50096134
    C     -2.16642754      0.48258987     -4.19997276
    O     -1.08986120      0.56302105     -5.14260405
    C     -1.61118876      0.51944785     -2.75908922
    C     -2.67982246      0.33760609     -1.69188278
    O     -0.63084541     -0.51362495     -2.58957077
    H     -3.42309242      1.59766492     -5.55904744
    H     -2.67907176      2.58663543     -4.31032306
    H     -4.05161817      1.52769802     -3.90356896
    H     -2.65591520     -0.47973180     -4.38753562
    H     -0.39447681      1.12298703     -4.75531778
    H     -1.08412680      1.46508184     -2.58892446
    H     -3.23474171     -0.59383425     -1.85006788
    H     -3.38706311      1.17075173     -1.68563705
    H     -2.22055023      0.26644213     -0.69985521
    H     -0.89187064     -1.26733585     -3.14814638
