64
Energy:    -66.36768326
    H     -2.95561913      2.84227098     -5.62954080
    C     -2.23237042      2.05107025     -5.41188806
    C     -2.00207014      1.67515127     -4.08421239
    C     -1.54671598      1.42392630     -6.46105222
    H     -2.57546277      2.14429942     -3.27962871
    C     -1.06743430      0.65211626     -3.80322448
    H     -1.74100471      1.73047966     -7.49398974
    C     -0.60652053      0.40092001     -6.20561993
    C     -0.81423665      0.24913565     -2.43162410
    C     -0.38403688      0.02325719     -4.87221196
    C      0.13380663     -0.26057580     -7.34419799
    N     -0.35818007     -0.96347953     -2.01290364
    N     -0.98610347      1.00795543     -1.31796377
    H      0.36770088     -0.74524609     -4.66218807
    H      0.70708559      0.48089904     -7.92596796
    H     -0.56896896     -0.74681355     -8.04099661
    H      0.83868044     -1.02416144     -6.98165988
    H     -0.22514465     -1.75702316     -2.63637383
    C     -0.24638542     -0.99507027     -0.62030894
    H     -1.24108140      1.99237485     -1.33687544
    C     -0.65255840      0.28541777     -0.16934677
    C      0.15607911     -1.98675825      0.27472136
    C     -0.66194013      0.61335815      1.18500329
    H      0.46956785     -2.97717970     -0.06976546
    C      0.15243799     -1.68665429      1.65564546
    H     -0.92725485      1.60119273      1.57729776
    C     -0.30784718     -0.38819470      2.09602967
    C      0.63707758     -2.76027640      2.56540863
    S     -0.48500602      0.11445071      3.87659682
    C     -0.13562156     -3.19010356      3.68006537
    C      1.85402374     -3.40023865      2.24467141
    O     -1.73809736     -0.61011129      4.28490187
    O      0.78037912     -0.36894469      4.50969265
    O     -0.63709656      1.60477906      3.78257627
    H     -1.05167965     -2.64502408      3.92168474
    C      0.28032834     -4.24665579      4.49053934
    H      2.47169016     -3.04386408      1.41316051
    C      2.26642263     -4.44254846      3.07888446
    H     -0.32026682     -4.56887093      5.34560242
    C      1.49353388     -4.89257376      4.18713813
    N      3.39493584     -5.25410268      3.09370619
    N      2.12038497     -5.96526213      4.81503251
    H      4.18991244     -5.19343899      2.46478399
    C      3.27501396     -6.11048555      4.18179080
    C      4.35556131     -7.06986515      4.55829738
    H      4.02885035     -7.63335494      5.44355960
    H      5.29648686     -6.54634869      4.80388775
    H      4.56801160     -7.78655940      3.74393861
    C     -2.42832182      3.88789992      0.86627246
    C     -1.20464311      4.12582855     -0.00693105
    O     -1.52723785      3.71769775     -1.34236352
    C     -0.72575884      5.59431629     -0.00417137
    C     -0.26580971      6.08028465      1.36193827
    O      0.36343351      5.75192403     -0.92388265
    H     -2.78372872      2.85867249      0.74837494
    H     -3.25305229      4.54344918      0.56891775
    H     -2.20617952      4.05307772      1.92327156
    H     -0.39172181      3.46685087      0.31825870
    H     -1.88236269      4.49138019     -1.81397122
    H     -1.52643821      6.24609836     -0.37168556
    H      0.52377375      5.43364027      1.76062112
    H     -1.09151004      6.10783719      2.07735412
    H      0.15950694      7.08697445      1.28581085
    H      0.87078313      4.92079934     -0.93089066
