64
Energy:    -66.31605266
    H      6.92560731     -0.66337616      0.31920351
    C      6.13128710     -0.20849675      0.91803581
    C      4.79446267     -0.42888150      0.56960073
    C      6.45931865      0.58697449      2.02428976
    H      4.55347624     -1.08610410     -0.27076704
    C      3.76793479      0.15889962      1.34410242
    H      7.51111580      0.74718893      2.28262499
    C      5.45174947      1.18687506      2.81212137
    C      2.37483267     -0.05748928      0.99735708
    C      4.11208163      0.95723283      2.46189357
    C      5.81798715      2.05061492      3.99611648
    N      1.30908204      0.00357914      1.84245839
    N      1.88205451     -0.35983013     -0.23201052
    H      3.32499559      1.44570966      3.04644722
    H      6.44643987      2.90192438      3.68433227
    H      6.39545833      1.47584401      4.73909322
    H      4.92478529      2.45497156      4.49614661
    H      1.39917172      0.13000345      2.84845329
    C      0.12134057     -0.27336161      1.16026339
    H      2.44656162     -0.38761653     -1.07759472
    C      0.49326901     -0.50771599     -0.18685957
    C     -1.21062098     -0.34464913      1.56928482
    C     -0.45325659     -0.81272227     -1.16305497
    H     -1.50158933     -0.16518100      2.60900094
    C     -2.19383429     -0.65726946      0.60357932
    H     -0.21879055     -0.96034590     -2.22293087
    C     -1.78650402     -0.93585322     -0.75593204
    C     -3.60415612     -0.67250719      1.07894145
    S     -2.94145293     -1.47673234     -2.10796746
    C     -4.45288407     -1.78942006      0.84136726
    C     -4.05584658      0.42323715      1.84621067
    O     -3.19025503     -2.91662469     -1.75194985
    O     -4.11337304     -0.55968689     -1.96198156
    O     -2.11279512     -1.28132902     -3.34416881
    H     -4.08324834     -2.60098888      0.20940249
    C     -5.75098604     -1.83886459      1.34996486
    H     -3.41989289      1.30270144      1.99463733
    C     -5.36539934      0.36704770      2.33026473
    H     -6.39586343     -2.70145955      1.16093287
    C     -6.21833804     -0.75255941      2.11328206
    N     -6.14127519      1.25319544      3.06860127
    N     -7.44666868     -0.55797251      2.73873693
    H     -5.86950463      2.18258491      3.37452116
    C     -7.39000104      0.66734489      3.23937557
    C     -8.51389512      1.37987649      3.91680440
    H     -9.38958436      0.71586750      3.93130990
    H     -8.78677785      2.30791386      3.38388166
    H     -8.25900836      1.64852885      4.95835356
    C      1.94407505     -1.69906340     -3.88547082
    C      2.35303996     -0.26372222     -3.58709623
    O      3.35893496     -0.29271266     -2.56662927
    C      2.87877999      0.49405461     -4.82611427
    C      1.83793352      0.66021404     -5.92292951
    O      3.33346010      1.79866709     -4.44101524
    H      1.67680920     -2.21749583     -2.95847579
    H      2.77396708     -2.25631091     -4.33167643
    H      1.08495306     -1.74047080     -4.55932008
    H      1.50285050      0.27420488     -3.15275383
    H      4.22728001     -0.33684301     -3.00382647
    H      3.75593618     -0.02247190     -5.23203467
    H      0.94154751      1.15899136     -5.53789404
    H      1.54752571     -0.30281254     -6.35025035
    H      2.22906040      1.29190637     -6.72797520
    H      2.77663667      2.10278676     -3.70231375
