64
Energy:    -65.66879764
    H     -1.22451031     -4.44021752     -4.76755245
    C     -0.75900590     -3.46493219     -4.59848386
    C     -0.55686494     -3.01639064     -3.28889404
    C     -0.37077271     -2.67773497     -5.69108284
    H     -0.82644956     -3.65997502     -2.44666053
    C      0.04525447     -1.75586179     -3.07067805
    H     -0.53571011     -3.04585799     -6.70890605
    C      0.23056553     -1.41394064     -5.49880382
    C      0.26219586     -1.27297714     -1.71880940
    C      0.43686895     -0.97160131     -4.18279477
    C      0.63545528     -0.57008831     -6.68455191
    N      1.20673256     -0.37783537     -1.31840757
    N     -0.43711071     -1.62611165     -0.60892142
    H      0.87133230      0.02132974     -4.02421815
    H     -0.23344069     -0.35011230     -7.32760739
    H      1.37586588     -1.09750588     -7.30862871
    H      1.07477510      0.38879634     -6.37009631
    H      1.92840135     -0.01194395     -1.93601800
    C      1.12770962     -0.15968904      0.05962855
    H     -1.26116680     -2.22205719     -0.62420114
    C      0.05941504     -0.96894435      0.51989536
    C      1.86248722      0.64056923      0.93495167
    C     -0.30892185     -0.99681710      1.86356498
    H      2.68881491      1.26619793      0.58330940
    C      1.51670799      0.63010641      2.30511745
    H     -1.15255048     -1.57323608      2.25870532
    C      0.45170425     -0.23671498      2.75919421
    C      2.29744928      1.53754438      3.18954290
    S     -0.03971308     -0.45241598      4.53864331
    C      2.92190263      1.05846392      4.37479179
    C      2.47040055      2.87660252      2.77675583
    O      1.06705457     -1.32268777      5.06744703
    O     -0.07672888      0.94516883      5.06880133
    O     -1.36841787     -1.14221162      4.43012817
    H      2.73270059      0.02747827      4.68450967
    C      3.71637154      1.88857414      5.16594360
    H      1.95641458      3.25930861      1.88834181
    C      3.25172253      3.69999215      3.59159292
    H      4.19123196      1.51104736      6.07569693
    C      3.89537084      3.22760303      4.77086021
    N      3.59997187      5.04406279      3.52392823
    N      4.63775236      4.24595703      5.36219666
    H      3.28757279      5.71386275      2.82751899
    C      4.38764632      5.32426804      4.63422322
    C      4.87318609      6.70422509      4.93375399
    H      5.47253966      6.67096630      5.85441634
    H      4.03425279      7.40594244      5.08707941
    H      5.50397729      7.10184359      4.11768537
    C     -5.66477649     -1.49260813     -2.70533024
    C     -4.71685202     -2.55765927     -2.17279924
    O     -4.06805787     -3.17323055     -3.29269038
    C     -3.66204463     -2.00342243     -1.18994783
    C     -4.26288005     -1.42018031      0.08001257
    O     -2.75194498     -3.04653218     -0.81486161
    H     -6.32264051     -1.91894203     -3.47016835
    H     -5.10899101     -0.67967502     -3.18343823
    H     -6.28959338     -1.07710691     -1.91107550
    H     -5.29659925     -3.35242685     -1.69001706
    H     -3.24670017     -2.68209575     -3.46952400
    H     -3.05500311     -1.23982958     -1.68934801
    H     -4.89039395     -2.15951455      0.59006177
    H     -4.86622541     -0.53382488     -0.13143109
    H     -3.47106185     -1.13979423      0.78323486
    H     -3.24667600     -3.88520743     -0.80558588
