64
Energy:    -65.54384045
    H     -3.57633724     -2.90120665     -4.76800790
    C     -2.63079559     -2.37791188     -4.59897073
    C     -2.20547508     -2.13055925     -3.28939249
    C     -1.85761190     -1.96254512     -5.69159804
    H     -2.79868840     -2.49792166     -2.44714739
    C     -0.98300817     -1.45448736     -3.07121722
    H     -2.20588577     -2.16612092     -6.70941197
    C     -0.63388741     -1.28335618     -5.49935927
    C     -0.52568193     -1.18779062     -1.71936088
    C     -0.20878160     -1.04347128     -4.18336334
    C      0.18575589     -0.83153567     -6.68513500
    N      0.76321673     -1.00809099     -1.31911309
    N     -1.29985625     -1.06914218     -0.60933310
    H      0.72174624     -0.48777755     -4.02480914
    H     -0.39373100     -0.14753376     -7.32796183
    H      0.48185625     -1.69085120     -7.30943493
    H      1.10047863     -0.30640653     -6.37070584
    H      1.56307664     -1.12945160     -1.93686767
    C      0.82584747     -0.78491584      0.05896029
    H     -2.31680506     -1.07540447     -0.62446303
    C     -0.51375023     -0.82298823      0.51941822
    C      1.88896571     -0.56067116      0.93417223
    C     -0.82953532     -0.63195026      1.86317462
    H      2.92495477     -0.53149296      0.58238210
    C      1.60165947     -0.36857471      2.30442078
    H     -1.85100837     -0.61103373      2.25847111
    C      0.23129338     -0.45541103      2.75868306
    C      2.76446048     -0.08380291      3.18873285
    S     -0.29373080     -0.34582821      4.53823306
    C      2.99453553     -0.83678266      4.37379064
    C      3.68315773      0.90566249      2.77601551
    O      0.10152177     -1.69728776      5.06669638
    O      0.48821762      0.81306659      5.06851648
    O     -1.77595570     -0.13525505      4.42998204
    H      2.24158656     -1.56604361      4.68346840
    C      4.12356820     -0.62290449      5.16481931
    H      3.48704305      1.51595937      1.88775781
    C      4.79758893      1.12170418      3.59073207
    H      4.29085080     -1.20625841      6.07442622
    C      5.04717360      0.36301950      4.76980419
    N      5.86192542      2.01332914      3.52309509
    N      6.24315214      0.76041437      5.36104579
    H      5.99671312      2.74013069      2.82681729
    C      6.66598064      1.78351881      4.63322275
    C      7.86296285      2.62450955      4.93275098
    H      8.33159222      2.24902373      5.85326546
    H      7.58787278      3.68302810      5.08633791
    H      8.60726113      2.58181299      4.11656285
    C     -4.30450449      1.31757355      0.08196605
    C     -4.14746797      0.49670107     -1.19003706
    O     -4.00926660     -0.87958675     -0.81487016
    C     -5.32626901      0.66033171     -2.17464212
    C     -5.48261920      2.07774760     -2.70422761
    O     -5.14913438     -0.21761501     -3.29485723
    H     -3.49599689      1.08719865      0.78393889
    H     -5.24329662      1.07427516      0.58972605
    H     -4.28035067      2.38995673     -0.12609382
    H     -3.20741463      0.76710476     -1.68402346
    H     -4.89824068     -1.27517146     -0.79616643
    H     -6.25889697      0.34732251     -1.69172979
    H     -4.55608361      2.42207684     -3.17699412
    H     -5.75115132      2.77661396     -1.90808923
    H     -6.26161801      2.11414794     -3.47361040
    H     -4.19317886     -0.30109092     -3.46039220
