64
Energy:    -65.48988024
    H      5.95533498      2.37397917     -1.68513588
    C      4.93956578      2.69493780     -1.43682462
    C      4.03347325      1.76725833     -0.91195975
    C      4.55757323      4.02710379     -1.64561276
    H      4.35880971      0.74173361     -0.71526397
    C      2.72067652      2.18253787     -0.59070183
    H      5.28074814      4.73933880     -2.05600567
    C      3.25110188      4.46554734     -1.33471910
    C      1.76600664      1.23395238     -0.04610934
    C      2.34801520      3.53218206     -0.80239525
    C      2.84803274      5.90165920     -1.57375673
    N      0.68975011      1.52371843      0.73584815
    N      1.77305518     -0.11367791     -0.21765506
    H      1.32300714      3.85483358     -0.59009479
    H      2.96839981      6.17387253     -2.63597218
    H      3.47968241      6.59046034     -0.98858950
    H      1.79836903      6.08101523     -1.29558138
    H      0.49250350      2.45622549      1.09312864
    C      0.00352017      0.35709602      1.08355006
    H      2.42102769     -0.60357400     -0.82968973
    C      0.70599720     -0.70573739      0.46314361
    C     -1.13161348      0.12240493      1.86001235
    C      0.29175297     -2.02973136      0.59482013
    H     -1.67623651      0.94061118      2.34147397
    C     -1.57393214     -1.21052536      2.01710478
    H      0.77706775     -2.87855401      0.10078201
    C     -0.81620339     -2.28320764      1.41130129
    C     -2.81674198     -1.40379940      2.81289234
    S     -1.19855848     -4.08946878      1.62503540
    C     -2.86392184     -2.32011756      3.90027916
    C     -3.93014883     -0.59039508      2.50944446
    O     -0.70078331     -4.35360888      3.01944958
    O     -2.68038420     -4.16321099      1.43946699
    O     -0.37526809     -4.72852771      0.54482865
    H     -1.99767625     -2.96191033      4.08020866
    C     -4.00316354     -2.44904375      4.69506931
    H     -3.91168278      0.08473728      1.64701748
    C     -5.07018987     -0.74713026      3.30199383
    H     -4.02980038     -3.15698500      5.52800367
    C     -5.12352867     -1.64859730      4.40318325
    N     -6.33067146     -0.16161599      3.27476895
    N     -6.36030273     -1.57072484      5.03735972
    H     -6.66907741      0.51038560      2.59278194
    C     -7.07314169     -0.72874329      4.30375174
    C     -8.51308686     -0.39672699      4.51839584
    H     -8.87651643     -0.96502607      5.38609688
    H     -9.12745182     -0.66598947      3.64102567
    H     -8.65894408      0.68077378      4.71760369
    C      1.76093702     -2.20028126     -3.51130205
    C      2.68473370     -1.01728936     -3.25908417
    O      3.41584260     -1.27525355     -2.05369948
    C      3.66325608     -0.74466623     -4.42268400
    C      2.97027709     -0.36146882     -5.72149648
    O      4.55966892      0.31633969     -4.06524945
    H      1.16198382     -2.41045866     -2.61877556
    H      2.33694248     -3.10600460     -3.72630886
    H      1.07841096     -2.00729636     -4.34244163
    H      2.08426665     -0.12290709     -3.05818448
    H      4.24069159     -1.73133372     -2.29603605
    H      4.29248909     -1.62575969     -4.59213647
    H      2.31957897      0.50779968     -5.57485670
    H      2.37090703     -1.18607244     -6.11538021
    H      3.70896575     -0.07814856     -6.47924492
    H      4.07660343      0.93306557     -3.48687420
