64
Energy:    -66.88094728
    H     -6.12105684     -1.38331709      3.55933623
    C     -5.03478570     -1.25576313      3.54501854
    C     -4.34565794     -1.35756779      2.33183482
    C     -4.34693896     -0.99215110      4.73730733
    H     -4.90088897     -1.52165642      1.40391919
    C     -2.94158202     -1.19222860      2.31359307
    H     -4.90326808     -0.91458728      5.67707580
    C     -2.94412603     -0.82538965      4.74514971
    C     -2.20900584     -1.29544630      1.06440603
    C     -2.25847541     -0.92217295      3.52423972
    C     -2.21262455     -0.55172622      6.03822160
    N     -1.00976698     -0.71858094      0.77665176
    N     -2.58654160     -1.98567321     -0.04313113
    H     -1.16716923     -0.82801301      3.52555812
    H     -2.38280507     -1.36202813      6.76715192
    H     -2.56959340      0.38262448      6.50234554
    H     -1.12716781     -0.46163638      5.88007145
    H     -0.53595989     -0.07062839      1.40258254
    C     -0.61443459     -1.02563896     -0.52804884
    H     -3.40730200     -2.58488763     -0.08493350
    C     -1.63742751     -1.84958445     -1.05964296
    C      0.50417620     -0.67631542     -1.28513864
    C     -1.56922206     -2.35247321     -2.35746726
    H      1.29583930     -0.03942246     -0.87829972
    C      0.59996761     -1.16628788     -2.60717418
    H     -2.31349925     -3.02576127     -2.79660125
    C     -0.47680836     -1.96910724     -3.14367451
    C      1.83482363     -0.80671326     -3.35620402
    S     -0.55488613     -2.58490564     -4.89557439
    C      1.77032555     -0.21567315     -4.64879312
    C      3.07748151     -0.99462117     -2.71287363
    O     -0.93569267     -1.34067301     -5.64977099
    O      0.82404572     -3.10322850     -5.15163956
    O     -1.63782156     -3.62221721     -4.83011004
    H      0.79455066     -0.12304523     -5.13246391
    C      2.92254818      0.19137443     -5.32175694
    H      3.13337477     -1.48817338     -1.73655035
    C      4.22297257     -0.60086673     -3.40943784
    H      2.86246409      0.64376651     -6.31543763
    C      4.16987163      0.00705461     -4.69618488
    N      5.57997373     -0.66619029     -3.11505257
    N      5.45034964      0.33255981     -5.13467823
    H      5.99838964     -1.07833015     -2.28663246
    C      6.26569413     -0.13931439     -4.20311980
    C      7.75735413     -0.12994993     -4.27102957
    H      8.06045410      0.33568724     -5.21932406
    H      8.17231374     -1.15279416     -4.23465379
    H      8.20092871      0.44652553     -3.43863325
    C     -2.09818108      4.25393931      3.19751462
    C     -1.06582016      3.15229942      3.39013983
    O     -1.47986274      2.34642643      4.50061517
    C     -0.87208963      2.26809774      2.13856088
    C     -0.33473120      3.02827786      0.93550390
    O      0.03812588      1.19991683      2.43444304
    H     -2.26847515      4.78298678      4.14124748
    H     -3.06221760      3.83571510      2.89081103
    H     -1.77344567      4.98319533      2.45145123
    H     -0.10898137      3.59763802      3.68505350
    H     -2.03152766      1.62269235      4.15567053
    H     -1.82124192      1.78937559      1.87227337
    H      0.60676457      3.53211290      1.18101352
    H     -1.04968405      3.77437257      0.57977213
    H     -0.11771492      2.33767801      0.11325710
    H      0.68569196      1.53042445      3.08224230
