64
Energy:    -64.98810426
    H     -4.05569082      5.23165295     -0.24541354
    C     -3.98370458      4.18431795     -0.55260627
    C     -2.95029618      3.38820097     -0.04729365
    C     -4.92397545      3.65232609     -1.44538415
    H     -2.24933736      3.80594209      0.68098039
    C     -2.85775871      2.03432955     -0.44424202
    H     -5.72668436      4.29019824     -1.82939006
    C     -4.85127382      2.30337161     -1.85865316
    C     -1.79162828      1.19285133      0.06866178
    C     -3.81624058      1.50740672     -1.34362783
    C     -5.86464610      1.74409364     -2.82937752
    N     -1.81553304     -0.16289201      0.19170063
    N     -0.57774543      1.60484134      0.51848138
    H     -3.73192761      0.46986811     -1.68454122
    H     -5.85607331      2.30792907     -3.77748411
    H     -6.88520471      1.81611701     -2.41813336
    H     -5.66408865      0.68733847     -3.06259250
    H     -2.64221784     -0.72710458      0.00627841
    C     -0.61645776     -0.63059933      0.73602071
    H     -0.25051671      2.56641184      0.46597860
    C      0.18768943      0.51699505      0.94665647
    C     -0.15950253     -1.90788373      1.06196315
    C      1.47091500      0.42109072      1.48147561
    H     -0.77804895     -2.79645375      0.90157410
    C      1.13601990     -2.03772185      1.61131795
    H      2.14399238      1.27372239      1.62321505
    C      1.92185764     -0.84894839      1.85845093
    C      1.59613026     -3.42430933      1.89571665
    S      3.58760262     -0.84424916      2.68290746
    C      2.10921312     -3.78627273      3.17243254
    C      1.43410309     -4.39595326      0.88426361
    O      3.22478599     -1.05948771      4.12650625
    O      4.31468878     -1.97069629      2.02098332
    O      4.10165507      0.53190721      2.37469695
    H      2.25860679     -3.00026373      3.91709717
    C      2.47101919     -5.10127583      3.46577229
    H      1.07977509     -4.11239841     -0.11271850
    C      1.82098808     -5.70388903      1.18760836
    H      2.86536095     -5.36917140      4.44984370
    C      2.31990202     -6.08138982      2.46693788
    N      1.84082724     -6.88134648      0.44897290
    N      2.58706405     -7.44712288      2.50231643
    H      1.58650851     -6.98451143     -0.52872337
    C      2.35413322     -7.87746946      1.27113893
    C      2.60094895     -9.26458288      0.77641946
    H      3.00351739     -9.86399354      1.60503005
    H      3.33136579     -9.27675153     -0.05187286
    H      1.67106759     -9.74183160      0.41653016
    C      2.02980397      3.56594042     -1.34935934
    C      0.61685688      4.12727975     -1.27891313
    O      0.23392907      4.19141622      0.10067768
    C      0.47743978      5.52031581     -1.93145234
    C      0.76819037      5.52310270     -3.42458004
    O     -0.85329251      6.01791497     -1.73499456
    H      2.09377891      2.62870190     -0.78631924
    H      2.74716147      4.25722404     -0.89563014
    H      2.33196683      3.36590550     -2.38016565
    H     -0.07853096      3.42286593     -1.74910235
    H      0.48500884      5.06819577      0.44027829
    H      1.14207342      6.23286280     -1.42994171
    H      0.12799956      4.80434891     -3.94811392
    H      1.81300031      5.27769974     -3.63075852
    H      0.55312147      6.50787287     -3.85363374
    H     -1.45969277      5.25601048     -1.73386644
