64
Energy:    -64.93639069
    H      1.24022861     -1.10439980     -6.39536292
    C      1.56946137     -1.39577626     -5.39378140
    C      0.80334799     -1.02694581     -4.28287619
    C      2.75050179     -2.13319694     -5.23399633
    H     -0.13753812     -0.48815796     -4.42666416
    C      1.22896487     -1.40408959     -2.98838330
    H      3.33639784     -2.41402890     -6.11521267
    C      3.19769290     -2.51976072     -3.95089713
    C      0.44773688     -1.02955845     -1.82339435
    C      2.42187782     -2.15259654     -2.84030881
    C      4.47776110     -3.30573282     -3.79060280
    N      0.42095382     -1.67199240     -0.62326465
    N     -0.39753967      0.02884978     -1.71916121
    H      2.77830814     -2.41857673     -1.83929485
    H      5.33544941     -2.75309391     -4.20994872
    H      4.41858751     -4.26793777     -4.32586826
    H      4.69581159     -3.51623360     -2.73254448
    H      0.89959174     -2.55338974     -0.44957108
    C     -0.45576449     -1.03453054      0.25867831
    H     -0.51260471      0.73538762     -2.44166888
    C     -0.98589250      0.07061698     -0.45238165
    C     -0.83561115     -1.30202850      1.57422510
    C     -1.90345893      0.94203632      0.13122538
    H     -0.42902633     -2.15513764      2.12628903
    C     -1.76886348     -0.43946110      2.19232264
    H     -2.30808912      1.83169842     -0.36362789
    C     -2.32991924      0.65626909      1.43311926
    C     -2.10398152     -0.73801688      3.61139605
    S     -3.65160175      1.80139146      2.06264854
    C     -3.45404694     -0.86837687      4.04105247
    C     -1.03857343     -0.96940369      4.50847339
    O     -4.88203231      0.94118172      1.97308935
    O     -3.19680010      2.14251984      3.44556859
    O     -3.61134383      2.92565489      1.06893779
    H     -4.25250669     -0.64222368      3.32973626
    C     -3.76981676     -1.22201868      5.35307834
    H      0.00050965     -0.82809314      4.19183054
    C     -1.37239129     -1.30202717      5.82389015
    H     -4.81072175     -1.31868293      5.67376950
    C     -2.71936393     -1.45186723      6.26129004
    N     -0.61132741     -1.55551859      6.95919005
    N     -2.75785342     -1.82480774      7.60191972
    H      0.40016356     -1.50220165      7.03167675
    C     -1.49456410     -1.81311014      8.00093884
    C     -1.02507306     -2.04303173      9.39967514
    H     -1.90208883     -2.22561425     10.03643017
    H     -0.48138759     -1.16681947      9.79512828
    H     -0.35340097     -2.91842550      9.46681935
    C      2.66033129      4.06414610     -4.45900706
    C      1.33555984      3.34087908     -4.65483714
    O      1.54392848      2.28248939     -5.59845348
    C      0.74788008      2.77251580     -3.34434499
    C      0.40063545      3.84258865     -2.32046059
    O     -0.44236063      2.02487357     -3.62966434
    H      3.07940967      4.35638526     -5.42776533
    H      3.39547178      3.40888102     -3.98094728
    H      2.54048612      4.96560350     -3.85329287
    H      0.61536811      4.02094184     -5.12353694
    H      1.78580926      1.48172181     -5.10108342
    H      1.45196324      2.05935379     -2.90090294
    H     -0.28951005      4.57992488     -2.74539997
    H      1.29354435      4.36222877     -1.96402286
    H     -0.10676375      3.39590234     -1.45840991
    H     -0.88191643      2.44282311     -4.39145820
