64
Energy:    -64.85858134
    H      4.03264647      1.56580485     -5.05989191
    C      3.34695758      2.03147464     -4.34613957
    C      2.85930417      1.28165524     -3.27048116
    C      2.96567369      3.36944952     -4.51532234
    H      3.19889924      0.25178943     -3.12805366
    C      1.97331636      1.88399206     -2.34781385
    H      3.35859097      3.94102129     -5.36243787
    C      2.07995946      3.99276468     -3.60827024
    C      1.45589373      1.12151327     -1.22590035
    C      1.59877052      3.23777956     -2.52727085
    C      1.66825915      5.43258019     -3.80690344
    N      1.01990267      1.62137509     -0.03686715
    N      1.31282995     -0.22778522     -1.15873378
    H      0.88522540      3.70233642     -1.83817195
    H      1.17934862      5.57188590     -4.78590825
    H      2.54594334      6.09967888     -3.78456993
    H      0.96595599      5.76581318     -3.02775644
    H      1.09466209      2.60395489      0.21822691
    C      0.60453547      0.59017431      0.80983884
    H      1.48348895     -0.85529566     -1.94075626
    C      0.79326160     -0.61019228      0.08080145
    C      0.09656165      0.57896053      2.10919977
    C      0.47443820     -1.85274302      0.62515086
    H     -0.04971693      1.50392157      2.67570720
    C     -0.23144457     -0.66628650      2.69126399
    H      0.56350818     -2.80214949      0.08589407
    C      0.01071870     -1.88143391      1.94522664
    C     -0.81576234     -0.62159704      4.05939578
    S     -0.25421189     -3.59486702      2.61486517
    C     -0.27721763     -1.40260850      5.11970973
    C     -1.87396464      0.28211193      4.29793298
    O      0.93228392     -3.76457738      3.52336233
    O     -1.58429068     -3.50960782      3.29258361
    O     -0.20858279     -4.44127362      1.37609003
    H      0.51407611     -2.12061412      4.88954425
    C     -0.77415440     -1.30697318      6.41974540
    H     -2.31873106      0.85288698      3.47554397
    C     -2.37390082      0.35015786      5.60094010
    H     -0.35402466     -1.91233259      7.22764451
    C     -1.83208225     -0.41396512      6.67362585
    N     -3.40657022      1.07651999      6.18263932
    N     -2.49202016     -0.11989702      7.86352496
    H     -4.04419201      1.70660849      5.70552515
    C     -3.46109465      0.71735565      7.52417913
    C     -4.51531105      1.24127786      8.44280980
    H     -4.34805649      0.81796134      9.44319924
    H     -5.52720203      0.95452462      8.10580204
    H     -4.48164160      2.34367476      8.51733123
    C     -0.72799286     -2.12903371     -6.27032087
    C      0.56789512     -2.21792514     -5.47706388
    O      1.53352633     -1.36836210     -6.10937472
    C      0.40655104     -1.82156946     -3.99292633
    C     -0.52773963     -2.73829035     -3.21787939
    O      1.68564501     -1.83623806     -3.34427201
    H     -0.53677818     -2.32141156     -7.33142912
    H     -1.15813819     -1.12462584     -6.20335213
    H     -1.46482156     -2.85550934     -5.91932996
    H      0.97091601     -3.23426998     -5.55094443
    H      1.46892953     -0.48702989     -5.70170721
    H      0.04517495     -0.78941185     -3.92198980
    H     -0.19816272     -3.78088898     -3.28792331
    H     -1.55451418     -2.66931022     -3.58575949
    H     -0.52329810     -2.47697741     -2.15401388
    H      2.22196809     -2.53595158     -3.75776873
