64
Energy:    -64.75669227
    H      1.63932055      6.19016359      3.57074029
    C      0.94826648      5.57524767      2.98697433
    C      1.44571587      4.50562180      2.23496329
    C     -0.42320444      5.86353750      2.99852786
    H      2.51258793      4.26722685      2.26939930
    C      0.55214647      3.71070522      1.48081452
    H     -0.79442057      6.70387161      3.59411174
    C     -1.33549705      5.08542748      2.25151917
    C      1.04984271      2.59714793      0.69336382
    C     -0.83182740      4.00955832      1.50390467
    C     -2.81030236      5.41225831      2.26384385
    N      0.35150131      1.48853105      0.32317749
    N      2.30139720      2.45916364      0.18330824
    H     -1.52710495      3.42170444      0.89494331
    H     -2.98988401      6.43997913      1.90547204
    H     -3.21906154      5.34886892      3.28597238
    H     -3.38426151      4.72562154      1.62318415
    H     -0.59390899      1.28976448      0.64382716
    C      1.15805236      0.62184259     -0.41921224
    H      3.01661594      3.18051529      0.23397336
    C      2.42349903      1.25283757     -0.51131580
    C      0.92171788     -0.62169023     -1.00596103
    C      3.48469445      0.66411885     -1.19627678
    H     -0.05402646     -1.11253809     -0.93615865
    C      1.97981003     -1.24717904     -1.70326422
    H      4.46633361      1.13177468     -1.32964315
    C      3.27513521     -0.60528441     -1.74687580
    C      1.66356136     -2.54829277     -2.35310946
    S      4.79196690     -1.35317931     -2.51780501
    C      2.46543495     -3.70182771     -2.12809637
    C      0.49372314     -2.62826129     -3.13953528
    O      5.19249570     -2.37883034     -1.49332581
    O      4.29771040     -1.89517185     -3.82073848
    O      5.72339064     -0.17995100     -2.61285839
    H      3.38521783     -3.59322570     -1.54770076
    C      2.12939777     -4.94036079     -2.67517937
    H     -0.10183433     -1.73320450     -3.34955825
    C      0.18311940     -3.87119648     -3.69723720
    H      2.75284844     -5.82086182     -2.49714232
    C      0.96858501     -5.03627166     -3.46539760
    N     -0.83920656     -4.30566737     -4.53298039
    N      0.40813434     -6.13747236     -4.10657313
    H     -1.57277505     -3.73165398     -4.93745153
    C     -0.62441610     -5.65592153     -4.78273981
    C     -1.48713407     -6.43582265     -5.71934056
    H     -1.12234325     -7.47217468     -5.74853174
    H     -1.45215995     -6.02318287     -6.74317171
    H     -2.54296556     -6.44376473     -5.39204439
    C     -1.53454510     -1.03253561      2.30949110
    C     -1.88536402      0.43044539      2.53991828
    O     -2.16180978      1.02569934      1.26584274
    C     -3.08764695      0.63042148      3.48876985
    C     -2.84031214      0.11600940      4.89879811
    O     -3.41342527      2.02462576      3.57310209
    H     -0.74557958     -1.11875886      1.55475807
    H     -2.39895135     -1.58549606      1.92820174
    H     -1.18285904     -1.51089309      3.22675281
    H     -1.00822308      0.95778026      2.93155932
    H     -3.11530329      0.93444446      1.09369550
    H     -3.97430225      0.13902854      3.07241738
    H     -1.94690714      0.57930773      5.33206610
    H     -2.71521154     -0.96956686      4.91409620
    H     -3.67946489      0.37664500      5.55301960
    H     -2.58598338      2.53034180      3.48471539
