64
Energy:    -64.62760438
    H      4.87155050      3.00537496     -4.42268033
    C      4.20538127      2.17586136     -4.16854308
    C      3.75824188      2.03091351     -2.85091928
    C      3.80756580      1.27040311     -5.16155124
    H      4.04329013      2.76949864     -2.09628459
    C      2.89681887      0.95881258     -2.52282023
    H      4.16655500      1.40056353     -6.18764481
    C      2.94946622      0.18999002     -4.85802581
    C      2.42327559      0.79141790     -1.16064337
    C      2.49870942      0.05299042     -3.53584791
    C      2.53578941     -0.78538108     -5.93484693
    N      1.27846472      0.16627192     -0.77032225
    N      3.03576248      1.22759559     -0.02918686
    H      1.86054085     -0.80092337     -3.28407594
    H      3.41688783     -1.27142342     -6.38686288
    H      1.99709076     -0.26983347     -6.74716671
    H      1.88033741     -1.57538155     -5.53782562
    H      0.58081584     -0.18304169     -1.42407376
    C      1.14177371      0.20892049      0.61975425
    H      3.95669381      1.65898667     -0.01368784
    C      2.28351111      0.89658965      1.10094010
    C      0.16093353     -0.26855094      1.48951029
    C      2.48099731      1.12061466      2.46208263
    H     -0.72267802     -0.79929643      1.12151455
    C      0.32976777     -0.05234285      2.87579167
    H      3.36633674      1.60928423      2.88336656
    C      1.48043658      0.69029811      3.34081177
    C     -0.71805882     -0.62370059      3.76507158
    S      1.78079348      1.15906045      5.11408688
    C     -1.37735533      0.17572984      4.74001471
    C     -1.09957269     -1.96747353      3.55988033
    O      0.81089876      2.29192181      5.30868998
    O      1.47526679     -0.09460733      5.86950169
    O      3.22254825      1.57651093      5.10276035
    H     -1.02811421      1.19916664      4.89895417
    C     -2.41172574     -0.33664517      5.52342693
    H     -0.56539455     -2.59737177      2.84029232
    C     -2.12276103     -2.47102341      4.36729419
    H     -2.91151749      0.28567419      6.27082028
    C     -2.80130544     -1.67592362      5.33450658
    N     -2.71843104     -3.72272955      4.47117389
    N     -3.79747127     -2.41776970      5.96313368
    H     -2.46072774     -4.55819028      3.95464184
    C     -3.67709905     -3.64326730      5.47434009
    C     -4.45878989     -4.83497160      5.91992878
    H     -5.14897084     -4.52174004      6.71584727
    H     -3.80046044     -5.62696278      6.31877374
    H     -5.04977653     -5.26895639      5.09266946
    C     -2.29477026      2.58646212     -4.57420770
    C     -1.76234740      1.18622107     -4.30525622
    O     -0.72969606      0.91377907     -5.26098869
    C     -1.21757068      1.00242158     -2.87164885
    C     -2.27647431      1.17433016     -1.79315707
    O     -0.64732031     -0.30621646     -2.73261646
    H     -2.57285256      2.69018685     -5.62845359
    H     -1.52716300      3.34074747     -4.37376390
    H     -3.17569577      2.80528724     -3.96596120
    H     -2.55211105      0.45247289     -4.50205047
    H      0.11775854      1.19512947     -4.87398138
    H     -0.39830586      1.70802539     -2.69303633
    H     -3.11699616      0.49132292     -1.95917858
    H     -2.65696981      2.19839227     -1.76349261
    H     -1.86196395      0.93079852     -0.80878544
    H     -1.15381307     -0.91430390     -3.29999266
