64
Energy:    -64.57098738
    H      2.14664119      0.30182794     -6.26311814
    C      2.50111127      0.33325484     -5.22879551
    C      1.62880852     -0.01297773     -4.19135302
    C      3.82049016      0.71801512     -4.95424884
    H      0.61524549     -0.35165031     -4.42421537
    C      2.08742200      0.02734481     -2.85451094
    H      4.48922645      0.98424080     -5.77923288
    C      4.30134645      0.76834583     -3.62684572
    C      1.19648896     -0.32739481     -1.76447052
    C      3.42386885      0.41378182     -2.59030222
    C      5.72251637      1.19447493     -3.34274881
    N      1.55970220     -0.79914260     -0.54001955
    N     -0.15999670     -0.25311010     -1.76813567
    H      3.77755204      0.48241588     -1.55588713
    H      5.91465314      2.21005459     -3.72819843
    H      6.44188285      0.51905548     -3.83485595
    H      5.93849853      1.19593109     -2.26353911
    H      2.51880765     -1.03385940     -0.29273478
    C      0.43268410     -1.04414388      0.24904355
    H     -0.70352374      0.14645478     -2.52930534
    C     -0.68366909     -0.68810440     -0.54781555
    C      0.27344703     -1.53104707      1.54676110
    C     -1.98772689     -0.80169406     -0.06987450
    H      1.13319679     -1.80791883      2.16486578
    C     -1.03721965     -1.66289446      2.05842126
    H     -2.87797131     -0.50009911     -0.63255501
    C     -2.16321789     -1.33523661      1.21191887
    C     -1.15201764     -2.13920793      3.46382366
    S     -3.94273314     -1.56817502      1.69516020
    C     -1.98580616     -3.24009161      3.80606161
    C     -0.34510262     -1.51740326      4.44138650
    O     -4.11254674     -3.05663515      1.56252996
    O     -4.00598702     -1.02877795      3.08826133
    O     -4.67193071     -0.76904384      0.65462657
    H     -2.62661638     -3.67016201      3.03207471
    C     -2.03817185     -3.73665310      5.10870105
    H      0.26502221     -0.64304603      4.19004584
    C     -0.42535021     -2.01345537      5.74518350
    H     -2.68303149     -4.58266900      5.36184751
    C     -1.24322452     -3.12517823      6.09626737
    N      0.17679562     -1.63771248      6.94043230
    N     -1.09950224     -3.42863617      7.44723412
    H      0.80267609     -0.85015747      7.07914693
    C     -0.30186182     -2.48763477      7.93049298
    C      0.06799573     -2.31846823      9.36727309
    H     -0.42966830     -3.10585831      9.95062321
    H     -0.25456642     -1.33679863      9.75714930
    H      1.15934948     -2.40332965      9.52125858
    C     -2.19690977      2.88352870     -2.29286524
    C     -1.21518069      2.47800780     -3.38293167
    O     -1.49280029      1.11970336     -3.74618696
    C     -1.27899340      3.38304103     -4.63298638
    C     -0.89754407      4.82923769     -4.35552355
    O     -0.39895869      2.87577758     -5.64554340
    H     -2.18093037      2.15260199     -1.47738145
    H     -3.22113738      2.90479982     -2.67867651
    H     -1.95322030      3.86406326     -1.87687795
    H     -0.19831018      2.47572454     -2.97450769
    H     -2.13532740      1.13094235     -4.47703893
    H     -2.28569244      3.34859749     -5.06466297
    H      0.09977873      4.89035333     -3.90591138
    H     -1.61423315      5.31241314     -3.68674986
    H     -0.85766099      5.39963261     -5.28996080
    H      0.36313378      2.46474499     -5.20002317
