64
Energy:    -64.55293269
    H      6.64639009      2.79367239     -0.82286924
    C      5.84385084      2.41517973     -0.18323335
    C      4.53578791      2.36533511     -0.67675423
    C      6.13287371      1.98515526      1.11896546
    H      4.33295164      2.66474956     -1.70895694
    C      3.49870397      1.87565165      0.15014723
    H      7.16281443      2.03030428      1.48756644
    C      5.11360345      1.49411136      1.96496724
    C      2.13483437      1.81737332     -0.34407270
    C      3.80410382      1.44028187      1.46255497
    C      5.43580521      1.04302370      3.37021703
    N      1.15153929      0.97850489      0.08392324
    N      1.59249135      2.58846500     -1.32226832
    H      3.00192833      1.09290620      2.12260167
    H      5.88682210      1.86293780      3.95435282
    H      6.16227903      0.21357062      3.36060508
    H      4.53571913      0.70265078      3.90438491
    H      1.30741190      0.23099737      0.75702148
    C     -0.02998174      1.19801707     -0.62926570
    H      2.07775639      3.36379470     -1.76705444
    C      0.25594984      2.24435611     -1.54108298
    C     -1.29137556      0.60416805     -0.57700713
    C     -0.70967657      2.73084586     -2.42016794
    H     -1.51567296     -0.20480124      0.12523240
    C     -2.29088963      1.07188961     -1.45975011
    H     -0.54787357      3.56442471     -3.11231683
    C     -1.96402015      2.11035213     -2.41187927
    C     -3.63264679      0.44074012     -1.33111478
    S     -3.12875757      2.74566101     -3.71350378
    C     -4.30474098     -0.10509908     -2.46010723
    C     -4.18858958      0.32533163     -0.03844680
    O     -3.10656932      1.63336416     -4.72555338
    O     -4.41756311      2.92894229     -2.97792969
    O     -2.45461250      4.00718897     -4.16861436
    H     -3.86407152      0.03868740     -3.44995059
    C     -5.52772270     -0.76382347     -2.33133267
    H     -3.69453824      0.78174432      0.82614890
    C     -5.42386767     -0.31864484      0.07007194
    H     -6.03685515     -1.17906057     -3.20542209
    C     -6.09785706     -0.88362706     -1.05003493
    N     -6.26661761     -0.57635456      1.14512554
    N     -7.28196901     -1.49561530     -0.64853363
    H     -6.12481398     -0.28251232      2.10676969
    C     -7.38290122     -1.23784061      0.64708124
    C     -8.54456060     -1.59591492      1.51430627
    H     -9.29517149     -2.10964399      0.89736564
    H     -9.01113557     -0.69929110      1.95938887
    H     -8.24690406     -2.26902260      2.33910481
    C      4.14137818     -4.02624287      0.57372591
    C      3.40738588     -3.05338147      1.48547150
    O      4.38768444     -2.27904494      2.18792125
    C      2.43733156     -2.11836184      0.73013919
    C      1.30105175     -2.85455860      0.03670099
    O      1.86452726     -1.17228471      1.64331074
    H      4.88572534     -4.59209360      1.14406200
    H      4.68455375     -3.49071431     -0.21145844
    H      3.45462147     -4.73780096      0.10904504
    H      2.86366400     -3.61433154      2.25393915
    H      4.57174174     -1.48127797      1.66180076
    H      2.99143971     -1.52686616     -0.00747250
    H      0.74106520     -3.46888227      0.75053605
    H      1.67004169     -3.49777268     -0.76609542
    H      0.58890565     -2.14083095     -0.39173194
    H      1.77722148     -1.60868249      2.50942602
