64
Energy:    -66.72735080
    H      0.69625348     -5.66429672     -4.41488678
    C      0.12701180     -5.10060384     -3.67012223
    C      0.78514529     -4.16638259     -2.86317305
    C     -1.25057140     -5.31859602     -3.53256886
    H      1.85214934     -3.97700355     -3.01106467
    C      0.04898426     -3.43760549     -1.90085820
    H     -1.74883915     -6.05285257     -4.17387969
    C     -2.00727058     -4.60460037     -2.57686411
    C      0.71475424     -2.46465489     -1.05356399
    C     -1.34313513     -3.66390931     -1.77428736
    C     -3.48973355     -4.85567932     -2.43097410
    N      0.14324286     -1.38333946     -0.45533185
    N      2.02750927     -2.45641290     -0.70400529
    H     -1.91510518     -3.13017331     -1.00761067
    H     -3.68875858     -5.91230779     -2.18436650
    H     -4.02065349     -4.63649879     -3.37221420
    H     -3.93114541     -4.23422974     -1.63705976
    H     -0.82037165     -1.09829858     -0.61757784
    C      1.09281234     -0.66354035      0.27475241
    H      2.68179551     -3.19797817     -0.94158365
    C      2.31576668     -1.36118483      0.11454045
    C      1.01499068      0.50015864      1.04042234
    C      3.49187677     -0.92106484      0.71865670
    H      0.07244716      1.04219124      1.16569553
    C      2.19200500      0.97517193      1.66173279
    H      4.44988442     -1.44893238      0.65798392
    C      3.43762556      0.27179552      1.44845117
    C      2.04690963      2.19125625      2.50748409
    S      5.08602724      0.83609930      2.09559115
    C      2.88703405      3.32470362      2.32373692
    C      0.99480411      2.22128919      3.44852287
    O      5.41852140      1.96923717      1.16425490
    O      4.79862555      1.22190031      3.51130257
    O      5.94340514     -0.38263231      1.91490796
    H      3.71610953      3.25075089      1.61534519
    C      2.70514876      4.49354824      3.06326716
    H      0.37381579      1.33579802      3.62231556
    C      0.83973264      3.39184915      4.19560801
    H      3.35687666      5.35901139      2.91529996
    C      1.66349999      4.53842073      4.00882747
    N     -0.03695515      3.75910100      5.20996821
    N      1.26257451      5.56950410      4.85380075
    H     -0.74874865      3.17198645      5.63406433
    C      0.29561717      5.05189371      5.59698712
    C     -0.38769269      5.73990507      6.73253854
    H      0.04468079      6.74431078      6.84286690
    H     -0.24926685      5.19273453      7.68183706
    H     -1.47388779      5.84224978      6.55457289
    C     -1.68226744      1.39781840     -2.32232818
    C     -2.08916624     -0.06084834     -2.47467219
    O     -2.38041442     -0.57807889     -1.17019334
    C     -3.30359002     -0.26430550     -3.40718174
    C     -3.04525796      0.16627493     -4.84309226
    O     -3.68203497     -1.64768023     -3.41731993
    H     -0.88626219      1.49329501     -1.57614935
    H     -2.52305265      2.00219551     -1.96714716
    H     -1.31816244      1.81412273     -3.26466371
    H     -1.23475211     -0.64067384     -2.84157802
    H     -3.32879067     -0.44196629     -0.99940733
    H     -4.16871978      0.28129911     -3.01368444
    H     -2.17242510     -0.35242938     -5.25497531
    H     -2.87952493      1.24406955     -4.91555818
    H     -3.89738917     -0.09612055     -5.47959443
    H     -2.87369228     -2.17906109     -3.30579652
