64
Energy:    -66.65592192
    H     -2.71582516      3.07272488     -5.62800600
    C     -2.05931722      2.22516934     -5.41096470
    C     -1.85884082      1.83201193     -4.08344353
    C     -1.42844464      1.54389771     -6.46074837
    H     -2.39102651      2.34659319     -3.27832334
    C     -1.01050060      0.73615292     -3.80324557
    H     -1.59832974      1.86504955     -7.49355210
    C     -0.57459250      0.44760750     -6.20611275
    C     -0.78935850      0.31416508     -2.43181842
    C     -0.38204195      0.05335157     -4.87284926
    C      0.10785562     -0.27238561     -7.34536491
    N     -0.43330737     -0.93153764     -2.01324665
    N     -0.89732944      1.08474193     -1.31820332
    H      0.30470357     -0.77390994     -4.66347878
    H      0.73903823      0.41967588     -7.92807359
    H     -0.63312835     -0.69978699     -8.04115210
    H      0.74848298     -1.09088443     -6.98342533
    H     -0.36626930     -1.73343828     -2.63661352
    C     -0.32274986     -0.97182627     -0.62077766
    H     -1.07111088      2.08668736     -1.33713383
    C     -0.62247162      0.33765233     -0.16975032
    C     -0.00148859     -1.99285329      0.27409496
    C     -0.60338072      0.66557868      1.18450108
    H      0.22967071     -3.00564204     -0.07044145
    C      0.02108391     -1.69313292      1.65492268
    H     -0.78667915      1.67186734      1.57678774
    C     -0.33111519     -0.36132747      2.09543150
    C      0.41757488     -2.80252597      2.56445606
    S     -0.46445325      0.15451722      3.87604438
    C     -0.38626267     -3.16757546      3.68018858
    C      1.57781593     -3.53977888      2.24246090
    O     -1.77201129     -0.46522778      4.28610427
    O      0.75802203     -0.43042440      4.50777097
    O     -0.49448072      1.65226549      3.78171265
    H     -1.25446401     -2.54947170      3.92273382
    C     -0.05696075     -4.25437081      4.49051019
    H      2.22149044     -3.23521399      1.41008578
    C      1.90477069     -4.61208393      3.07652113
    H     -0.68080320     -4.52627853      5.34640550
    C      1.09908729     -4.99725013      4.18585753
    N      2.96327851     -5.51305827      3.09024854
    N      1.63704399     -6.11738833      4.81335015
    H      3.75977873     -5.51764577      2.46034589
    C      2.77518172     -6.35653895      4.17876171
    C      3.77426078     -7.40084517      4.55428078
    H      3.40372747     -7.93557523      5.44012435
    H      4.75508726     -6.95583714      4.79855985
    H      3.92648746     -8.13268083      3.73990396
    C      0.20376584      6.08397335      1.37016645
    C     -0.28515312      5.63686287     -0.00006509
    O      0.81794230      5.71615999     -0.91160800
    C     -0.87332117      4.20863761     -0.00506060
    C     -2.11456714      4.06024389      0.86169297
    O     -1.21665850      3.82923621     -1.34491994
    H      0.70026245      7.05740333      1.29635458
    H      0.94248603      5.38143776      1.76901635
    H     -0.62080880      6.17469919      2.08130882
    H     -1.03047123      6.34944872     -0.37096039
    H      1.27015959      4.85441342     -0.90951616
    H     -0.11168984      3.49285413      0.32440218
    H     -2.88653684      4.77855157      0.56397521
    H     -1.88569557      4.20943532      1.91986107
    H     -2.54869894      3.06192471      0.73920873
    H     -1.49871325      4.63150416     -1.81929560
