64
Energy:    -66.65590551
    H      1.30712943      3.88507653     -5.62933377
    C      0.89965116      2.89353803     -5.41191050
    C      0.65948695      2.52398493     -4.08419530
    C      0.62281993      2.00691229     -6.46140383
    H      0.84084565      3.24194237     -3.27928528
    C      0.13238216      1.24239545     -3.80350338
    H      0.81597611      2.31410082     -7.49436506
    C      0.09807344      0.72032558     -6.20627490
    C     -0.12245188      0.84056393     -2.43186894
    C     -0.14698988      0.35709721     -4.87281544
    C     -0.18667560     -0.23032508     -7.34522279
    N     -1.02473149     -0.08889032     -2.01263594
    N      0.49244433      1.31837292     -1.31868153
    H     -0.52180872     -0.65054297     -4.66307967
    H      0.72754237     -0.43270934     -7.92843469
    H     -0.92691196      0.19896741     -8.04064144
    H     -0.57679305     -1.19359335     -6.98291545
    H     -1.68689864     -0.54675189     -2.63555041
    C     -1.00374914     -0.20461515     -0.62016206
    H      1.27446899      1.96838132     -1.33816239
    C     -0.01759842      0.70791527     -0.16984218
    C     -1.72830539     -0.99186465      0.27524761
    C      0.27700355      0.85499371      1.18421639
    H     -2.49134650     -1.69707436     -0.06874153
    C     -1.45640618     -0.86185805      1.65589821
    H      1.05829009      1.51547748      1.57595167
    C     -0.47705881      0.10729378      2.09569528
    C     -2.22007055     -1.75836633      2.56600735
    S     -0.09525867      0.48023875      3.87603168
    C     -2.93652003     -1.24324335      3.68208237
    C     -2.28118440     -3.13172644      2.24424795
    O     -1.28397403      1.30502839      4.28666394
    O      0.00724696     -0.87102788      4.50789566
    O      1.18820661      1.25270581      3.78083960
    H     -2.83320297     -0.18246272      3.92441283
    C     -3.71413663     -2.07025372      4.49297772
    H     -1.69682957     -3.53809773      1.41159147
    C     -3.04739446     -3.94947678      3.07887392
    H     -4.26028145     -1.66479689      5.34913225
    C     -3.78220796     -3.44278024      4.18856474
    N     -3.30095423     -5.31618500      3.09294829
    N     -4.48484851     -4.46732972      4.81661619
    H     -2.90833835     -6.00909579      2.46291780
    C     -4.12532641     -5.57332837      4.18197941
    C     -4.53255628     -6.95989537      4.55793791
    H     -5.18029538     -6.90502816      5.44415101
    H     -3.65778596     -7.58841238      4.80179903
    H     -5.09163496     -7.45672079      3.74395909
    C      5.37691272      2.85565381      1.36660806
    C      4.74481615      3.05650238     -0.00328163
    O      5.36278402      2.13954999     -0.91505574
    C      3.21346885      2.85462887     -0.00734956
    C      2.46671982      3.85691002      0.85969852
    O      2.71264550      2.96301264     -1.34693081
    H      6.46823709      2.91033300      1.29214793
    H      5.13623530      1.86514286      1.76574142
    H      5.04503839      3.61584585      2.07783621
    H      4.99093493      4.05774629     -0.37446512
    H      4.84105811      1.31802230     -0.91253984
    H      2.97268364      1.83764246      0.32240052
    H      2.70455966      4.88412195      0.56169373
    H      2.71074784      3.73299232      1.91774140
    H      1.38478335      3.73573062      0.73786655
    H      3.26733337      3.60730551     -1.82172452
