64
Energy:    -66.60429998
    H     -0.20960839      6.38425155     -2.77295242
    C     -0.91923679      5.58846703     -2.52879158
    C     -0.47770772      4.46595796     -1.82020039
    C     -2.25848169      5.70105468     -2.92618825
    H      0.56047116      4.41196702     -1.48034219
    C     -1.39531472      3.43767931     -1.50438491
    H     -2.58613251      6.58753643     -3.47888894
    C     -3.19361831      4.68601985     -2.62456129
    C     -0.95547713      2.26466326     -0.77065047
    C     -2.74669427      3.56498952     -1.90786408
    C     -4.63227968      4.81400351     -3.06716115
    N     -1.72761616      1.45738086      0.00771092
    N      0.30505428      1.75990343     -0.72748700
    H     -3.45675573      2.75751273     -1.69903174
    H     -4.70057223      4.91378000     -4.16364224
    H     -5.10037740      5.71147208     -2.62980126
    H     -5.22866138      3.93816684     -2.76953220
    H     -2.70300947      1.65374390      0.22259335
    C     -0.96127367      0.43216387      0.56848298
    H      1.07729359      2.11568178     -1.28562785
    C      0.35805965      0.62773194      0.08983309
    C     -1.27395546     -0.62212294      1.42709314
    C      1.39905746     -0.22620236      0.44902217
    H     -2.29156370     -0.77581811      1.79956094
    C     -0.23861357     -1.50262844      1.81413867
    H      2.42396157     -0.13987252      0.07189790
    C      1.10874402     -1.25804695      1.34872982
    C     -0.63240503     -2.63929767      2.69056342
    S      2.59357268     -2.25044775      1.86339623
    C      0.05101151     -2.90455026      3.90993125
    C     -1.75992359     -3.40284609      2.31763218
    O      2.84533550     -1.74091405      3.25585158
    O      2.12548291     -3.66708499      1.76484729
    O      3.62870455     -1.83615909      0.85845000
    H      0.94363260     -2.31965424      4.14610540
    C     -0.36256404     -3.92200044      4.77012623
    H     -2.26177174     -3.22889021      1.35960672
    C     -2.14801041     -4.43144989      3.18004556
    H      0.17006210     -4.11860873      5.70464459
    C     -1.48230530     -4.69551644      4.41098486
    N     -3.15740053     -5.38550905      3.12273327
    N     -2.10180992     -5.74426116      5.08493035
    H     -3.81420183     -5.52380794      2.36069884
    C     -3.04926312     -6.17197097      4.26355970
    C     -3.92487236     -7.35946010      4.49361848
    H     -3.65191744     -7.81273812      5.45693808
    H     -3.79762284     -8.11794894      3.70101060
    H     -4.99361275     -7.07904483      4.52719303
    C      5.14155509      0.27148908     -3.52476111
    C      4.16797714      1.44137081     -3.52217378
    O      3.29668740      1.29511440     -4.65066005
    C      3.33806392      1.54534801     -2.22362583
    C      4.18058855      1.80402332     -0.98378175
    O      2.38103863      2.60698043     -2.34231956
    H      5.62778435      0.18521831     -4.50234050
    H      4.61693394     -0.67287753     -3.34787309
    H      5.91895035      0.39376610     -2.76674861
    H      4.71888087      2.37376301     -3.68947853
    H      2.51897311      0.78516933     -4.36390492
    H      2.75438331      0.62866871     -2.08223983
    H      4.78868628      2.70715611     -1.10669355
    H      4.84247830      0.96231063     -0.76519146
    H      3.53721811      1.97311966     -0.11338247
    H      2.77398796      3.30210436     -2.89964761
