67
Energy:    -62.44761065
    H      4.93344989      4.61980356      2.48342897
    C      4.31095827      4.28317105      1.64975533
    C      3.23848450      3.42126461      1.90598828
    C      4.59390552      4.71298342      0.34553020
    H      3.03158528      3.09434484      2.93036378
    C      2.43156402      2.98505910      0.83074641
    H      5.43850090      5.38659963      0.16859566
    C      3.80160835      4.29028823     -0.74273584
    C      1.31064514      2.08611100      1.07923424
    C      2.72410626      3.42788270     -0.48145643
    C      4.11078598      4.75847456     -2.14523817
    N      0.79648251      1.76413582      2.27510538
    N      0.60171841      1.42130510      0.10914507
    H      2.10918134      3.10431261     -1.32809611
    H      4.06029906      5.85948584     -2.21604946
    H      3.40319158      4.34230047     -2.87856912
    H      5.12830732      4.45943599     -2.44917773
    H      1.13932887      2.12982344      3.29214566
    C     -0.22138806      0.83656741      2.09970770
    H      0.82148303      1.44929852     -0.88263407
    C     -0.38348002      0.63749480      0.70677077
    C     -1.01501461      0.15011392      3.03199871
    C     -1.37125282     -0.20027763      0.18066409
    H     -0.85384637      0.27769090      4.10603358
    C     -2.00075911     -0.68770970      2.51088035
    H     -1.49071755     -0.34665502     -0.89568615
    C     -2.25320394     -0.81016303      1.09612956
    H     -2.57965840     -1.31042260      3.19894739
    C     -3.42845654     -1.57217184      0.60373044
    C     -4.68333951     -1.45202179      1.26716597
    C     -3.30226882     -2.41365712     -0.52190369
    H     -4.75421192     -0.79207250      2.13530077
    C     -5.83114208     -2.10604303      0.81042044
    H     -2.33294067     -2.54488394     -1.01361341
    C     -4.44409728     -3.10729829     -0.93718152
    H     -6.78851004     -2.00354682      1.32844566
    C     -5.72704159     -2.90443993     -0.34207531
    N     -4.65916155     -4.06985472     -1.91347425
    N     -6.71098144     -3.57904381     -1.05510265
    H     -3.96097257     -4.46117358     -2.53977106
    C     -6.00738690     -4.40491750     -1.87910348
    C     -6.56159654     -5.54384419     -2.66999138
    H     -7.64158459     -5.61030881     -2.47811574
    H     -6.09338635     -6.50243953     -2.38407322
    H     -6.40637331     -5.39952126     -3.75361200
    H     -0.96590718      0.95021809      6.76258201
    O     -0.60130948      1.37314545      5.95873254
    S      1.01410347      0.82120646      5.85813752
    O      1.56999640      0.93444162      7.22458432
    O      1.55858876      1.87739325      4.88299894
    O      0.94649339     -0.52559456      5.23311442
    C      2.97464160     -2.49459246     -2.28526717
    C      1.91511198     -1.44354599     -2.58390122
    O      0.75919189     -1.74198986     -1.79093337
    C      2.38840093      0.00023160     -2.30587636
    C      3.55337810      0.43639378     -3.18141319
    O      1.30469491      0.91583512     -2.51635311
    H      2.55513205     -3.49951793     -2.40214121
    H      3.32195901     -2.41512440     -1.25018242
    H      3.83221735     -2.40282832     -2.95610335
    H      1.59342747     -1.53717476     -3.62725817
    H      0.84354014     -1.26382366     -0.94751505
    H      2.66774079      0.10220408     -1.25110394
    H      3.30591359      0.32692089     -4.24316457
    H      4.45457381     -0.14434170     -2.96939290
    H      3.77831498      1.49597409     -3.01768485
    H      0.74698235      0.55908837     -3.23043255
