67
Energy:    -62.23111483
    H      6.00354093      3.15245896      2.42870102
    C      5.30738767      2.99349370      1.60049230
    C      4.04573682      2.44943889      1.86691205
    C      5.68478651      3.33099036      0.29302638
    H      3.76694334      2.19054493      2.89369203
    C      3.14341574      2.24353800      0.79875359
    H      6.67717798      3.75450118      0.10808379
    C      4.80006439      3.13419347     -0.78830001
    C      1.82513107      1.67671331      1.05788344
    C      3.53347338      2.59100470     -0.51679646
    C      5.21223064      3.50157976     -2.19433994
    N      1.25287311      1.50477318      2.25834020
    N      0.95702207      1.22444171      0.09483923
    H      2.84799965      2.44259586     -1.35806312
    H      5.45697163      4.57604026     -2.26799785
    H      4.41360148      3.28877152     -2.92136753
    H      6.11062050      2.94146026     -2.50468621
    H      1.68870474      1.76656461      3.27182825
    C      0.02299687      0.88247416      2.09294261
    H      1.16865936      1.19185468     -0.89856589
    C     -0.19705228      0.73265344      0.70178873
    C     -0.91790275      0.43366229      3.03289145
    C     -1.37664489      0.18854030      0.18521523
    H     -0.72028041      0.51454296      4.10536790
    C     -2.09551609     -0.11103723      2.52129175
    H     -1.53911558      0.07840536     -0.88982038
    C     -2.38234839     -0.16291664      1.10874838
    H     -2.81434756     -0.55597054      3.21530015
    C     -3.72212484     -0.58393177      0.62700330
    C     -4.89425074     -0.13251240      1.29905644
    C     -3.83381865     -1.42957214     -0.49704734
    H     -4.77969358      0.52318216      2.16574860
    C     -6.17847094     -0.45675662      0.85245240
    H     -2.93851270     -1.81527314     -0.99530230
    C     -5.12254062     -1.79355588     -0.90211218
    H     -7.06971927     -0.10191289      1.37702018
    C     -6.30015263     -1.25499987     -0.29842651
    N     -5.59426552     -2.66462925     -1.87402874
    N     -7.43392597     -1.64305858     -1.00241829
    H     -5.03072003     -3.22871170     -2.50416641
    C     -6.98270323     -2.62754231     -1.82902571
    C     -7.82691537     -3.57787052     -2.61259969
    H     -8.88394217     -3.35340945     -2.41280085
    H     -7.62943422     -4.62641754     -2.32724843
    H     -7.64712377     -3.48120163     -3.69772047
    H     -0.62832118      1.19496114      6.76067854
    O     -0.17023277      1.50447248      5.95300860
    S      1.23837453      0.54118716      5.84245596
    O      1.81479989      0.50312351      7.20455028
    O      2.03756205      1.41278965      4.86036716
    O      0.80886334     -0.73923553      5.22186280
    C      2.21192631     -3.24725780     -2.27045487
    C      1.45639234     -1.96282246     -2.58009706
    O      0.25995506     -1.95146634     -1.79115671
    C      2.28122626     -0.68560690     -2.30776743
    C      3.52180889     -0.56665327     -3.17999376
    O      1.46748898      0.47461025     -2.52862214
    H      1.55045090     -4.11277749     -2.38380805
    H      2.56458649     -3.25212056     -1.23413824
    H      3.06677934     -3.38159245     -2.93758192
    H      1.12493475     -1.97824169     -3.62448162
    H      0.46062949     -1.50503978     -0.94999971
    H      2.57382837     -0.65124905     -1.25222134
    H      3.25813932     -0.61643595     -4.24232094
    H      4.24444345     -1.35653565     -2.96034606
    H      4.00892280      0.40162812     -3.02104345
    H      0.83962568      0.26712272     -3.24343512
