67
Energy:    -62.23057511
    H      4.66424960      4.89540114      2.47867847
    C      4.06170046      4.52300898      1.64555926
    C      3.03999428      3.60184169      1.90305741
    C      4.31946760      4.96674586      0.34077779
    H      2.85224132      3.26483938      2.92785362
    C      2.25891673      3.11928763      0.82853406
    H      5.12438097      5.68706736      0.16285254
    C      3.55221906      4.49849666     -0.74678893
    C      1.19094674      2.15837711      1.07834218
    C      2.52552220      3.57655099     -0.48424228
    C      3.83397108      4.98192604     -2.14989756
    N      0.69618529      1.80904374      2.27471850
    N      0.52071847      1.45327799      0.10919498
    H      1.92978231      3.21761560     -1.33034415
    H      3.72098705      6.07820975     -2.22190890
    H      3.15099951      4.52539733     -2.88256144
    H      4.86677067      4.74084891     -2.45380517
    H      1.01793217      2.19475900      3.29125413
    C     -0.26737406      0.82494059      2.10064276
    H      0.73830933      1.49260461     -0.88267882
    C     -0.41821253      0.61542158      0.70797391
    C     -1.02049785      0.09554346      3.03392321
    C     -1.35690583     -0.27771270      0.18308149
    H     -0.86659235      0.23327329      4.10776938
    C     -1.95716207     -0.79752110      2.51401857
    H     -1.46810743     -0.43184545     -0.89307152
    C     -2.20256615     -0.93570313      1.09947781
    H     -2.49958360     -1.45135247      3.20294195
    C     -3.33273367     -1.76381161      0.60826427
    C     -4.59226379     -1.71441929      1.27193458
    C     -3.15919317     -2.59802528     -0.51647758
    H     -4.70032219     -1.05859299      2.13936138
    C     -5.70115358     -2.43311508      0.81624741
    H     -2.18408759     -2.67451033     -1.00832628
    C     -4.25985766     -3.35589113     -0.93065511
    H     -6.66267968     -2.38460517      1.33443978
    C     -5.55211920     -3.22559512     -0.33539713
    N     -4.42010386     -4.33020401     -1.90582206
    N     -6.49630038     -3.95581581     -1.04739125
    H     -3.70095117     -4.68191799     -2.53189129
    C     -5.74710375     -4.74129617     -1.87068646
    C     -6.23588289     -5.91075796     -2.66015469
    H     -7.31030515     -6.03826808     -2.46788931
    H     -5.71389352     -6.84087933     -2.37331620
    H     -6.08936041     -5.75905996     -3.74397935
    H     -1.01607614      0.90131671      6.76360683
    O     -0.67628421      1.34337885      5.95918436
    S      0.96785817      0.88401111      5.85872499
    O      1.51673276      1.03017851      7.22488302
    O      1.45122415      1.96833922      4.88226203
    O      0.97674248     -0.46515378      5.23520821
    C      3.51655659      0.63216779     -3.19033456
    C      2.38122828      0.13115429     -2.30914271
    O      1.24964410      0.98601999     -2.51587896
    C      1.99189381     -1.33751797     -2.58701759
    C      3.10910902     -2.32751984     -2.29427116
    O      0.85567582     -1.69820610     -1.78954549
    H      3.68238974      1.70177970     -3.02314388
    H      3.26984894      0.51208201     -4.25007969
    H      4.45059251      0.10533992     -2.98079387
    H      2.65771303      0.25175508     -1.25564728
    H      0.71597779      0.60682771     -3.23596610
    H      1.67378616     -1.44576859     -3.63012033
    H      3.45832802     -2.22731601     -1.26056701
    H      3.95848684     -2.18505500     -2.96704237
    H      2.74754689     -3.35550081     -2.40670760
    H      0.91104396     -1.20589135     -0.95122481
