67
Energy:    -62.23056126
    H     -4.09374814      5.38561924      2.46989461
    C     -3.82210564      4.72982153      1.63804805
    C     -3.07391621      3.57586718      1.89754744
    C     -4.22065820      5.05150917      0.33287606
    H     -2.76993195      3.33954646      2.92262065
    C     -2.72195570      2.72580418      0.82467387
    H     -4.80475083      5.95981520      0.15337132
    C     -3.88064674      4.21733357     -0.75306697
    C     -1.94184831      1.51986416      1.07657492
    C     -3.13247361      3.05833995     -0.48850739
    C     -4.31468676      4.56875476     -2.15660336
    N     -1.67409591      0.97884812      2.27396763
    N     -1.35251559      0.74429648      0.10869129
    H     -2.87305308      2.41136425     -1.33334609
    H     -5.41510489      4.63043746     -2.22776638
    H     -3.97259761      3.82047138     -2.88784341
    H     -3.91355144      5.54971066     -2.46314696
    H     -2.00314551      1.35991215      3.28991968
    C     -0.85495424     -0.12864714      2.10172018
    H     -1.35782250      0.96306913     -0.88368785
    C     -0.67318737     -0.31395587      0.70931274
    C     -0.25302762     -0.98550061      3.03644713
    C      0.05974792     -1.38332178      0.18623682
    H     -0.36371126     -0.80925808      4.10998786
    C      0.48016427     -2.05284040      2.51835408
    H      0.19338075     -1.51999814     -0.88972314
    C      0.57651430     -2.32029049      1.10434201
    H      1.04058500     -2.69025821      3.20825201
    C      1.21498560     -3.56835560      0.61544438
    C      0.96758195     -4.80267391      1.28220050
    C      2.06513360     -3.53156375     -0.51015224
    H      0.30370148     -4.80362208      2.15023035
    C      1.50141576     -6.01233992      0.82883462
    H      2.29445373     -2.58197565     -1.00440998
    C      2.63898280     -4.73920777     -0.92204909
    H      1.30189029     -6.95288361      1.34938832
    C      2.30645496     -5.99320649     -0.32358319
    N      3.57480290     -5.05381371     -1.89733307
    N      2.87749107     -7.04265506     -1.03366167
    H      4.03527954     -4.40080239     -2.52533266
    C      3.77084762     -6.42904871     -1.85918655
    C      4.84756002     -7.09848891     -2.64807578
    H      4.80368704     -8.17910549     -2.45326568
    H      5.84879740     -6.72953511     -2.36299369
    H      4.71997212     -6.93232786     -3.73217395
    H     -1.04459626     -0.84503239      6.76652994
    O     -1.42806973     -0.44145806      5.96151512
    S     -0.71450718      1.10908448      5.85681872
    O     -0.77078297      1.67733459      7.22171463
    O     -1.70960513      1.75562021      4.87975086
    O      0.61851530      0.90299995      5.23257658
    C     -0.07084132      3.56487080     -3.19854972
    C      0.24507540      2.36663273     -2.31486077
    O     -0.77820812      1.38404244     -2.51839246
    C      1.63342084      1.74923962     -2.59255970
    C      2.78794406      2.69646541     -2.30305420
    O      1.81056245      0.57212571     -1.79251426
    H     -1.10060409      3.89819631     -3.03120055
    H      0.00774998      3.29981577     -4.25775425
    H      0.59728879      4.40429649     -2.99156021
    H      0.17068005      2.66115686     -1.26197812
    H     -0.48885634      0.79544454     -3.23737789
    H      1.68904701      1.41559442     -3.63494188
    H      2.74517605      3.05953552     -1.27015053
    H      2.78101876      3.55612168     -2.97781575
    H      3.74568918      2.17658794     -2.41515098
    H      1.33396227      0.70661669     -0.95407198
