67
Energy:    -62.19926624
    H     -5.55701762     -4.58015751     -0.02606719
    C     -5.12037692     -3.64549799     -0.38881431
    C     -3.74839034     -3.42540168     -0.22163646
    C     -5.93346688     -2.68626621     -1.00894341
    H     -3.12755755     -4.18450382      0.26555918
    C     -3.18089109     -2.21875581     -0.69013548
    H     -7.00436488     -2.87956376     -1.12818915
    C     -5.38824346     -1.47486875     -1.48431339
    C     -1.75338854     -1.97226338     -0.52342925
    C     -4.01035621     -1.25874567     -1.31776447
    C     -6.26949033     -0.44631445     -2.15310485
    N     -0.82796642     -2.86731298     -0.14843712
    N     -1.13156138     -0.76506126     -0.72741708
    H     -3.58985672     -0.31873611     -1.69084785
    H     -6.75830138     -0.86589411     -3.05021446
    H     -5.69569594      0.43912984     -2.46681395
    H     -7.07079956     -0.10753675     -1.47466091
    H     -0.99090145     -3.96096220      0.10261182
    C      0.40405010     -2.23544791     -0.04798900
    H     -1.61511339      0.09604544     -0.96695558
    C      0.22973356     -0.89057021     -0.45676121
    C      1.65642635     -2.71573756      0.36565768
    C      1.29358105      0.01356928     -0.52821954
    H      1.77254915     -3.74359173      0.72038757
    C      2.72003990     -1.81616975      0.29703572
    H      1.15058122      1.04912214     -0.84666783
    C      2.57955887     -0.47980790     -0.22703020
    H      3.69246215     -2.11981960      0.69518612
    C      3.77502403      0.37273702     -0.44694657
    C      4.96194905     -0.19354059     -0.99453463
    C      3.73443185      1.74358483     -0.11498040
    H      4.96602012     -1.25733136     -1.24462783
    C      6.09464042      0.57765053     -1.27037067
    H      2.84141179      2.17939111      0.34456727
    C      4.89247457      2.49477782     -0.34304214
    H      6.99857072      0.13021361     -1.69241241
    C      6.04480286      1.95492723     -0.99261882
    N      5.23698276      3.80733148     -0.05247033
    N      6.97576537      2.95404785     -1.25088766
    H      4.65279561      4.49582945      0.41394357
    C      6.53147940      4.01102154     -0.51501634
    C      7.29538905      5.25729113     -0.20995870
    H      8.28615873      5.18420983     -0.67968474
    H      7.43043787      5.39468036      0.87758947
    H      6.78540764      6.15336009     -0.60509966
    H      2.32193074     -6.41078770      1.04649419
    O      1.58820150     -5.90155153      0.64612820
    S      0.46218107     -5.67143052      1.91239726
    O      0.33883857     -6.97996009      2.59177418
    O     -0.76539074     -5.30008113      1.06501476
    O      0.96287903     -4.51301937      2.69756167
    C     -4.09454086      2.43298431      0.50836551
    C     -2.66422285      1.91273166      0.51176842
    O     -2.24425319      1.76243814     -0.85023574
    C     -1.67999105      2.83028441      1.27017380
    C     -1.99442930      2.96432190      2.75244791
    O     -0.34483491      2.32253772      1.14133140
    H     -4.72623343      1.80091053     -0.12485658
    H     -4.14067138      3.44438157      0.09208127
    H     -4.52117112      2.44269100      1.51423349
    H     -2.64427546      0.90551047      0.94298599
    H     -1.82736361      2.59665977     -1.12842514
    H     -1.66952948      3.82437090      0.80902674
    H     -2.02869736      1.98098485      3.23454015
    H     -2.94983081      3.46901823      2.91630626
    H     -1.20964244      3.53668348      3.25903038
    H     -0.39793702      1.35125988      1.09638109
