67
Energy:    -62.18316333
    H      4.60402901      5.30013708      1.60473512
    C      4.41628875      4.35707527      1.08395013
    C      3.09582660      3.92762689      0.90875936
    C      5.49116677      3.59495524      0.60477239
    H      2.26774107      4.53433598      1.28982030
    C      2.84984570      2.70961471      0.23534958
    H      6.51586703      3.95011746      0.75395405
    C      5.26889725      2.37616737     -0.07041752
    C      1.48039603      2.24635095      0.04480492
    C      3.94225209      1.94985747     -0.24731720
    C      6.43133949      1.56071626     -0.58575188
    N      0.36198792      2.95554030      0.25540590
    N      1.12393808      0.99180566     -0.38492853
    H      3.77318503      1.00492945     -0.77472253
    H      7.03090441      2.13894307     -1.31098610
    H      6.09287206      0.64135225     -1.08762300
    H      7.10754039      1.26872962      0.23561840
    H      0.28524292      4.02809280      0.61510487
    C     -0.74210027      2.14790893      0.01891312
    H      1.78200632      0.23874293     -0.56534118
    C     -0.26533480      0.89291742     -0.43260431
    C     -2.11592478      2.39834862      0.16073761
    C     -1.12545531     -0.14037909     -0.81579751
    H     -2.47318626      3.35541423      0.55085509
    C     -2.97719012      1.36928111     -0.21932431
    H     -0.74909198     -1.10507763     -1.16498997
    C     -2.50893066      0.13018050     -0.78994307
    H     -4.04960193      1.48734066     -0.03952763
    C     -3.47129715     -0.85518655     -1.34423136
    C     -4.58424275     -0.40811427     -2.11286160
    C     -3.28222636     -2.23389159     -1.11078402
    H     -4.70624218      0.66486906     -2.28030385
    C     -5.48715770     -1.29852686     -2.70084207
    H     -2.45376399     -2.58493590     -0.48707415
    C     -4.22331165     -3.11333276     -1.65695955
    H     -6.33627581     -0.94159559     -3.28991549
    C     -5.27619537     -2.67645126     -2.51824894
    N     -4.40495839     -4.48498242     -1.54973712
    N     -5.95186493     -3.76436719     -3.05819854
    H     -3.83386731     -5.12931859     -1.00980020
    C     -5.51472612     -4.81998359     -2.31612463
    C     -6.11369955     -6.18756145     -2.28841860
    H     -6.97485831     -6.20626697     -2.97081416
    H     -6.46099055     -6.45816506     -1.27548343
    H     -5.39021314     -6.95464607     -2.61599391
    H     -3.50774997      5.86717814      0.92877042
    O     -2.63092391      5.51312059      0.67619902
    S     -1.78974681      5.31139723      2.15134097
    O     -2.03399801      6.54400969      2.93238122
    O     -0.36188481      5.21098313      1.59096867
    O     -2.25575138      4.01638534      2.71248440
    C      4.22202131     -1.86748397      1.27705471
    C      2.76090538     -1.55905472      0.98295334
    O      2.63243662     -1.32412822     -0.42499671
    C      1.79678681     -2.68336868      1.42134530
    C      1.79462785     -2.93023901      2.92235308
    O      0.45835177     -2.35948851      1.02041851
    H      4.86602436     -1.08762562      0.85681190
    H      4.52282009     -2.81130415      0.81114854
    H      4.41241690     -1.92477453      2.35145934
    H      2.48268022     -0.61723358      1.46916801
    H      2.42865148     -2.17423769     -0.85266189
    H      2.05021698     -3.61336069      0.89994141
    H      1.56123256     -2.00969913      3.46886197
    H      2.75962479     -3.30881963      3.26849990
    H      1.02154515     -3.65944446      3.18827892
    H      0.36109306     -1.39138003      1.05950444
