67
Energy:    -61.24133438
    H     -4.64031902     -5.52347774      0.40567108
    C     -4.42860719     -4.49716287      0.09312525
    C     -3.10053064     -4.05712721      0.05680304
    C     -5.48095765     -3.64127468     -0.26157875
    H     -2.29034277     -4.73807035      0.33776755
    C     -2.82356156     -2.73147256     -0.34750978
    H     -6.51217041     -4.00686750     -0.22486184
    C     -5.22761049     -2.31421673     -0.66834824
    C     -1.44579697     -2.25581294     -0.39023762
    C     -3.89330363     -1.87698501     -0.70674918
    C     -6.36583874     -1.39775860     -1.05089622
    N     -0.33940535     -3.00627738     -0.28612370
    N     -1.06763047     -0.94479359     -0.54462468
    H     -3.69998872     -0.84728425     -1.02608393
    H     -6.93963183     -1.81078296     -1.89940160
    H     -6.00434198     -0.40027561     -1.34417558
    H     -7.07179888     -1.26911969     -0.21290737
    H     -0.28120924     -4.13014611     -0.14765242
    C      0.77646290     -2.18089020     -0.31408875
    H     -1.71499380     -0.16297230     -0.59343242
    C      0.32286678     -0.85503179     -0.52030959
    C      2.14272272     -2.47125831     -0.17534990
    C      1.20156718      0.22386245     -0.65528671
    H      2.48056171     -3.49151541      0.02649720
    C      3.02242841     -1.39715061     -0.30807350
    H      0.84310251      1.24358058     -0.81624017
    C      2.58183578     -0.06296519     -0.63375801
    H      4.08662029     -1.56188957     -0.11653051
    C      3.56906624      1.00222439     -0.94210875
    C      4.70874305      0.70581744     -1.74372816
    C      3.37718890      2.30780599     -0.44239607
    H      4.83239872     -0.31282357     -2.11961880
    C      5.63744573      1.68550810     -2.10639679
    H      2.52692837      2.53593636      0.20845688
    C      4.34238034      3.26787057     -0.76496000
    H      6.50699095      1.44438609     -2.72377859
    C      5.42564247      3.00083290     -1.65741900
    N      4.52575954      4.58751496     -0.37659710
    N      6.12628706      4.16701832     -1.94157513
    H      3.93717447      5.11668576      0.26089164
    C      5.66558731      5.05667645     -1.01834484
    C      6.26901690      6.38333614     -0.69330211
    H      7.15581618      6.52877729     -1.32579078
    H      6.57833525      6.44014066      0.36545679
    H      5.56199611      7.20932320     -0.88571824
    H      3.48888161     -6.04016403     -0.07240263
    O      2.62395352     -5.63197275     -0.28037442
    S      1.72764347     -5.72146074      1.17321947
    O      1.93634386     -7.08898919      1.69793472
    O      0.32280300     -5.49306477      0.59257453
    O      2.17740432     -4.57173788      2.00083684
    C     -4.36518870      1.73983769      1.14159189
    C     -2.87095231      1.49409376      0.98877981
    O     -2.57930327      1.39409839     -0.41084863
    C     -1.99965239      2.59487685      1.63291259
    C     -2.17227603      2.70114498      3.14052069
    O     -0.61490343      2.34083346      1.35908554
    H     -4.93209209      0.98767256      0.58267227
    H     -4.64392929      2.71563655      0.73114667
    H     -4.67539474      1.69257879      2.18821351
    H     -2.61695289      0.51787290      1.41693648
    H     -2.35795856      2.28478066     -0.73458251
    H     -2.22472405      3.56316959      1.17169038
    H     -1.97020583      1.73946217      3.62515746
    H     -3.18186044      3.02340097      3.40744836
    H     -1.45834742      3.42023128      3.55685568
    H     -0.49017485      1.37580379      1.32191672
