67
Energy:    -62.43083150
    H     -0.84460279     -6.23262716     -3.50565595
    C     -0.45899527     -5.20933251     -3.50762697
    C     -0.34898718     -4.52125174     -2.29388025
    C     -0.08542693     -4.60340206     -4.71555742
    H     -0.64588414     -5.00871878     -1.35939800
    C      0.14981458     -3.19885353     -2.29300034
    H     -0.18089028     -5.16047085     -5.65308989
    C      0.41511238     -3.28443325     -4.73815559
    C      0.27021682     -2.46664396     -1.03773724
    C      0.52722335     -2.59802047     -3.51779104
    C      0.81746430     -2.63804994     -6.04280249
    N      0.15525359     -2.97651892      0.19715141
    N      0.52225811     -1.12112924     -0.92965240
    H      0.91919563     -1.57549728     -3.53860071
    H      1.61731855     -3.21421486     -6.54085487
    H      1.18707965     -1.61224667     -5.89188153
    H     -0.03392560     -2.59155653     -6.74289291
    H     -0.05390528     -4.05459699      0.47936099
    C      0.27475116     -1.95252908      1.12686812
    H      0.59971976     -0.48673923     -1.71975050
    C      0.55115160     -0.75914223      0.41580722
    C      0.16399974     -1.95903108      2.52612501
    C      0.78577920      0.45878656      1.06074548
    H     -0.09211605     -2.87650704      3.06319536
    C      0.39610300     -0.74542822      3.17304167
    H      1.00037473      1.37457342      0.50440818
    C      0.79262885      0.45023831      2.47062314
    H      0.23057703     -0.68452916      4.25249730
    C      1.20296482      1.66382083      3.22107290
    C      2.02193647      1.54078876      4.38015121
    C      0.78292051      2.93837529      2.78501475
    H      2.33481962      0.54223643      4.69512959
    C      2.47889607      2.65545223      5.08904067
    H      0.11971871      3.04072372      1.91998055
    C      1.19984943      4.04381747      3.53437040
    H      3.10852870      2.54653306      5.97623196
    C      2.10940521      3.93205876      4.63048502
    N      0.90453632      5.39781979      3.46100243
    N      2.49242492      5.18996808      5.08059172
    H      0.28313056      5.84494641      2.79258739
    C      1.61382679      6.03486317      4.47206265
    C      1.39641071      7.47358049      4.80766464
    H      2.06681944      7.74506829      5.63498230
    H      0.35472023      7.66431431      5.12131502
    H      1.61793443      8.12936445      3.94741372
    H     -0.12481399     -5.17866501      4.55353073
    O      0.07969821     -4.96355762      3.62085899
    S     -1.40629061     -5.12435797      2.79001877
    O     -2.01136768     -6.38406172      3.27586256
    O     -0.86016397     -5.21715016      1.35613409
    O     -2.14165478     -3.85341911      3.02034890
    C     -3.29264992      2.10904553     -2.23704181
    C     -1.77098694      2.07778783     -2.23006128
    O     -1.33429886      2.07057761     -0.86504497
    C     -1.17933274      0.86440705     -2.98069193
    C     -1.51092841      0.84829911     -4.46519820
    O      0.24818069      0.85625822     -2.84217114
    H     -3.65778201      2.92853127     -1.60883429
    H     -3.70365215      1.18383050     -1.82062937
    H     -3.68719671      2.25087819     -3.24604841
    H     -1.38580785      3.00851499     -2.66159925
    H     -1.24862199      1.14298465     -0.58336644
    H     -1.53161481     -0.06495672     -2.51900554
    H     -1.18458593      1.77616818     -4.94800102
    H     -2.58297511      0.72207542     -4.63591270
    H     -0.98232945      0.02962031     -4.96566015
    H      0.54904354      1.78133040     -2.79808027
