67
Energy:    -60.82584890
    H     -5.98255792      1.51911351      1.10668047
    C     -5.35102851      1.42748656      0.21864663
    C     -3.97511292      1.22836480      0.37972054
    C     -5.92179118      1.51263553     -1.05915642
    H     -3.54511773      1.16496893      1.38476487
    C     -3.15632135      1.10872036     -0.76605718
    H     -7.00039733      1.66954306     -1.16111138
    C     -5.12350410      1.39582042     -2.21666277
    C     -1.72058555      0.90199260     -0.61692861
    C     -3.74349236      1.19277748     -2.05124768
    C     -5.74498314      1.48672133     -3.59045418
    N     -1.07266468      0.59357628      0.51586304
    N     -0.79994322      0.99524974     -1.63149148
    H     -3.12725362      1.09928301     -2.95187945
    H     -6.50563097      0.69905399     -3.73462090
    H     -4.99223216      1.37583507     -4.38590072
    H     -6.25004413      2.45683813     -3.73516005
    H     -1.52215021      0.44140674      1.54564418
    C      0.29097089      0.53883323      0.26148300
    H     -1.02216617      1.27003522     -2.58428521
    C      0.47648258      0.75624714     -1.12577819
    C      1.38145844      0.32144225      1.11810781
    C      1.73704502      0.70966344     -1.72840435
    H      1.23199583      0.19737006      2.19424397
    C      2.64090321      0.27563423      0.52069214
    H      1.87102501      0.87660812     -2.80004181
    C      2.83279342      0.37907851     -0.90504291
    H      3.52450548      0.20034631      1.16093488
    C      4.17042723      0.14256386     -1.50431713
    C      4.98668370     -0.92211359     -1.02525418
    C      4.63180773      0.97134707     -2.54897948
    H      4.60463946     -1.55015405     -0.21666197
    C      6.22940624     -1.21887880     -1.59215992
    H      4.02997502      1.81743466     -2.89615260
    C      5.90097780      0.70043669     -3.07164660
    H      6.84494430     -2.04028990     -1.21558894
    C      6.67374078     -0.43180357     -2.66900736
    N      6.69337279      1.35040715     -4.00736214
    N      7.80487195     -0.56246917     -3.46594198
    H      6.45972609      2.20318075     -4.50839349
    C      7.87016392      0.62240807     -4.13518999
    C      9.03370825      1.12828408     -4.92262891
    H      9.83935604      0.38245802     -4.87484690
    H      9.41332197      2.08327728     -4.51796064
    H      8.76789588      1.28968611     -5.98208639
    H      0.95930454     -0.71826433      4.76511019
    O      0.36207301     -0.64038072      3.99360410
    S     -0.36503977      0.89984866      4.14629803
    O     -0.76294775      1.02447796      5.56585880
    O     -1.55106646      0.69092129      3.19100747
    O      0.61927838      1.87108194      3.60139281
    C     -3.66981063     -2.16221505      5.11990977
    C     -3.89567380     -1.75858555      3.66989147
    O     -3.98719087     -0.32930375      3.61701258
    C     -2.78586810     -2.25280547      2.71601938
    C     -2.68689987     -3.76851144      2.63346806
    O     -3.02104177     -1.74828541      1.39420175
    H     -4.42737418     -1.70263698      5.76365542
    H     -2.69633167     -1.80993705      5.47569614
    H     -3.72459122     -3.24585522      5.24875488
    H     -4.86995445     -2.13248625      3.33550174
    H     -3.09263689      0.02219249      3.46425274
    H     -1.81902946     -1.84139664      3.02737097
    H     -3.64750550     -4.20691012      2.34092334
    H     -2.37863919     -4.20342105      3.58750631
    H     -1.96003049     -4.06260077      1.86842795
    H     -3.98424559     -1.68534725      1.26575645
