67
Energy:    -60.82582280
    H     -1.63333237      5.94978914      1.12056474
    C     -1.39840627      5.35816501      0.23139681
    C     -0.89351991      4.06252623      0.38997783
    C     -1.60135924      5.90087926     -1.04534605
    H     -0.74011594      3.65389331      1.39422648
    C     -0.58969055      3.29503599     -0.75727430
    H     -1.99652833      6.91687530     -1.14534326
    C     -1.30514113      5.15265987     -2.20429021
    C     -0.06187225      1.94364816     -0.61074185
    C     -0.80166062      3.85150951     -2.04139109
    C     -1.52776790      5.74264547     -3.57693594
    N     -0.01456625      1.22416947      0.51985603
    N      0.47693141      1.19213727     -1.62589652
    H     -0.57585671      3.27230697     -2.94314828
    H     -2.58762478      6.01629273     -3.72393784
    H     -1.25012931      5.03576721     -4.37374517
    H     -0.93249059      6.66096761     -3.71651516
    H     -0.37227358      1.53671850      1.54941932
    C      0.61132006      0.01179662      0.26367953
    H      0.60971036      1.52412444     -2.57713796
    C      0.89683812     -0.03776426     -1.12275480
    C      0.95707573     -1.04685745      1.11804045
    C      1.48020923     -1.15530154     -1.72701846
    H      0.77163186     -0.98158914      2.19375073
    C      1.54055193     -2.16305708      0.51899212
    H      1.69529449     -1.18597022     -2.79801135
    C      1.73021168     -2.27425372     -0.90645781
    H      1.90863770     -2.97093958      1.15787452
    C      2.18636870     -3.55252663     -1.50834827
    C      1.66115241     -4.78929810     -1.03521174
    C      3.13856970     -3.54164261     -2.54963007
    H      0.92353851     -4.76940311     -0.22914478
    C      2.01796971     -6.01483342     -1.60490955
    H      3.57893760     -2.59964774     -2.89214691
    C      3.53076688     -4.77757770     -3.07499834
    H      1.60572394     -6.95667602     -1.23289487
    C      2.92559528     -6.00958707     -2.67855255
    N      4.49030982     -5.14319595     -4.00854835
    N      3.37266842     -7.05536487     -3.47737068
    H      5.11864289     -4.51767642     -4.50530672
    C      4.43793618     -6.52552766     -4.14112301
    C      5.45467964     -7.28556640     -4.92749432
    H      5.20311411     -8.35441713     -4.88412503
    H      6.47122790     -7.14608456     -4.51877749
    H      5.46770402     -6.97123437     -5.98588118
    H     -0.16842928     -1.20448527      4.76059751
    O     -0.39254279     -0.64399999      3.99014155
    S      0.58809033      0.74770218      4.15088590
    O      0.49523173      1.15062611      5.57146521
    O     -0.17528860      1.67951393      3.19596734
    O      1.92038188      0.37230171      3.60943254
    C     -3.70904348      2.10895439      5.11385317
    C     -3.46422809      2.50929727      3.66600131
    O     -2.26587437      3.29405466      3.61993407
    C     -3.34337234      1.30326810      2.70856644
    C     -4.61275234      0.46984816      2.61879103
    O     -3.01583823      1.76105012      1.38939776
    H     -3.68519850      2.99250811      5.76060446
    H     -2.92369261      1.43471827      5.47018821
    H     -4.67915794      1.62169211      5.23767320
    H     -4.26885904      3.17349510      3.33096208
    H     -1.51834040      2.68976619      3.46781439
    H     -2.50970324      0.66412033      3.02075223
    H     -5.46689133      1.09019951      2.32527818
    H     -4.84238731     -0.01596411      3.57042868
    H     -4.50735374     -0.30497998      1.85155803
    H     -3.43573286      2.63039778      1.26233813
