67
Energy:    -60.78167843
    H      5.06116243     -3.69924856      0.15304920
    C      3.98290964     -3.85383938      0.05660438
    C      3.12039135     -2.76745237      0.24251689
    C      3.48182042     -5.12771009     -0.24665131
    H      3.52799648     -1.77920464      0.47969507
    C      1.72633171     -2.96383164      0.11772141
    H      4.17524766     -5.96308908     -0.38703150
    C      2.09399139     -5.34657143     -0.37610900
    C      0.81292013     -1.84340686      0.30913871
    C      1.23149630     -4.25329443     -0.19207468
    C      1.56074739     -6.72115032     -0.70472080
    N      1.14692348     -0.54739083      0.39234464
    N     -0.55022766     -1.94901621      0.43677793
    H      0.15498053     -4.42603175     -0.29649993
    H      1.95848148     -7.08049639     -1.67036411
    H      0.46203748     -6.72625351     -0.77161981
    H      1.85661046     -7.45650452      0.06265931
    H      2.18680114     -0.09977047      0.32963533
    C      0.00477907      0.20386220      0.63386696
    H     -1.05751216     -2.82919857      0.46222287
    C     -1.10007021     -0.68236889      0.62495004
    C     -0.16438613      1.57844027      0.86222250
    C     -2.41636673     -0.23871282      0.78268006
    H      0.69857003      2.24837925      0.91008090
    C     -1.47616588      2.02465076      1.02139255
    H     -3.26333048     -0.92920311      0.77250303
    C     -2.61787029      1.15191147      0.89859117
    H     -1.64695245      3.07055647      1.29203104
    C     -3.99446704      1.70806538      0.89590573
    C     -4.27628504      2.90683631      0.17977665
    C     -5.02312594      1.04821873      1.60126824
    H     -3.46194639      3.39681640     -0.35965460
    C     -5.56583933      3.44054554      0.10221901
    H     -4.80833039      0.14949563      2.18842721
    C     -6.29875319      1.62153760      1.56323419
    H     -5.76832379      4.36068978     -0.45252743
    C     -6.60719514      2.76044972      0.75763396
    N     -7.49095389      1.31135991      2.20226651
    N     -7.97401753      3.01215410      0.76643551
    H     -7.64400227      0.55096889      2.85894580
    C     -8.44188506      2.23326934      1.78158501
    C     -9.79641616      2.31538923      2.40472850
    H    -10.36249014      3.11523009      1.90731234
    H     -9.73387024      2.54626621      3.48299509
    H    -10.35374872      1.36897069      2.29146165
    H      2.67321586      4.09718726      0.45755155
    O      2.54955753      3.15180911      0.23632368
    S      3.23797956      2.29375967      1.54557586
    O      4.53039021      2.95447601      1.83218475
    O      3.38537377      0.92096303      0.86985822
    O      2.20229606      2.27692603      2.61149064
    C      6.11705589      1.70726488     -2.00586051
    C      5.26533569      0.44700834     -1.95284970
    O      5.35583295     -0.09345543     -0.62856606
    C      3.78601293      0.69084324     -2.32425609
    C      3.59035910      1.17111885     -3.75430117
    O      3.03627296     -0.51986224     -2.15357743
    H      7.12706388      1.49787234     -1.63767356
    H      5.70032448      2.48705414     -1.36040823
    H      6.19874559      2.09471163     -3.02423658
    H      5.69684617     -0.31207132     -2.61499604
    H      4.63384851      0.28871841     -0.09961085
    H      3.34506518      1.41768394     -1.63270589
    H      4.03906137      0.46957432     -4.46636896
    H      4.03090038      2.15906732     -3.90999699
    H      2.52326981      1.22635096     -3.99592870
    H      3.62552581     -1.26731855     -2.35927416
