67
Energy:    -60.54847047
    H      4.42925163     -4.29652570      1.08531978
    C      3.93837353     -3.88750129      0.19787022
    C      2.83880254     -3.03690018      0.35960892
    C      4.41048482     -4.21939397     -1.07992443
    H      2.48215250     -2.78832743      1.36461704
    C      2.20270844     -2.50596100     -0.78539278
    H      5.27171136     -4.88736713     -1.18242667
    C      3.79097810     -3.70083236     -2.23665875
    C      1.05508178     -1.61892933     -0.63559001
    C      2.68972459     -2.84488102     -2.07049919
    C      4.30568705     -4.06097575     -3.61040306
    N      0.62838893     -1.05210567      0.50229538
    N      0.22332315     -1.22509369     -1.65475049
    H      2.21323781     -2.44155737     -2.97045440
    H      5.35829481     -3.75015216     -3.73366940
    H      3.71766642     -3.57702021     -4.40518842
    H      4.26693897     -5.15094925     -3.77656370
    H      1.07960284     -1.16196151      1.53669361
    C     -0.52599136     -0.32507346      0.24531618
    H      0.29412920     -1.55554520     -2.61313157
    C     -0.77497158     -0.39565497     -1.14723691
    C     -1.37837946      0.38688848      1.10367084
    C     -1.83885192      0.27996031     -1.75225642
    H     -1.20245630      0.40015708      2.18287285
    C     -2.44174626      1.06117720      0.50384522
    H     -2.02258485      0.22169656     -2.82793088
    C     -2.63936263      1.09350971     -0.92449136
    H     -3.18153035      1.55146559      1.14311730
    C     -3.67634685      1.97220992     -1.52188792
    C     -3.86604415      3.29189554     -1.02013221
    C     -4.47227956      1.50036020     -2.58721508
    H     -3.23496717      3.63309550     -0.19579100
    C     -4.79121160      4.17537165     -1.58346706
    H     -4.36271094      0.47414960     -2.95256771
    C     -5.43384679      2.37360971     -3.10701290
    H     -4.92531232      5.18635974     -1.18934898
    C     -5.55124708      3.73194292     -2.67993321
    N     -6.43057541      2.21879210     -4.06015432
    N     -6.45829838      4.42029988     -3.47683888
    H     -6.64209597      1.37186091     -4.58055090
    C     -7.09144676      3.43592696     -4.17413584
    C     -8.34157928      3.58707901     -4.97671154
    H     -8.67359176      4.63273507     -4.91363133
    H     -9.14950154      2.93738945     -4.59587023
    H     -8.17530343      3.33561744     -6.03891511
    H     -0.54928747      1.01161070      4.77547675
    O     -0.05778966      0.66324857      4.00408403
    S     -0.18972462     -1.03760776      4.12238847
    O      0.07423528     -1.36990217      5.53975278
    O      0.95791646     -1.42453967      3.17576625
    O     -1.51767785     -1.38408602      3.55178262
    C      4.17637950      1.88081466      2.74453691
    C      3.50089422      0.51770131      2.79064136
    O      3.46005590     -0.00185416      1.45557120
    C      4.20911193     -0.48603558      3.72698208
    C      4.20830030     -0.05885540      5.18694456
    O      3.57176607     -1.76770649      3.63665519
    H      3.69588153      2.51669249      1.99333515
    H      5.22726457      1.78565492      2.45310907
    H      4.11971897      2.39038556      3.70942296
    H      2.45539003      0.63967641      3.09541022
    H      4.26804156     -0.52540655      1.31357096
    H      5.24162122     -0.63939735      3.39324756
    H      3.18670778      0.11881291      5.54095261
    H      4.79575270      0.84992692      5.33983136
    H      4.62697181     -0.85131248      5.81689689
    H      2.62416504     -1.61866266      3.46914631
