67
Energy:    -60.50427984
    H      1.54850527      6.05991113      0.36849342
    C      0.61853625      5.48677741      0.41853704
    C      0.64357753      4.12113381      0.11336742
    C     -0.57749953      6.12184732      0.78183526
    H      1.58599418      3.64058524     -0.16939207
    C     -0.55654781      3.37744592      0.17793130
    H     -0.57346810      7.19132557      1.01551459
    C     -1.78710493      5.39898401      0.85291571
    C     -0.54913765      1.95385439     -0.13773506
    C     -1.75765670      4.02789785      0.54914515
    C     -3.07193553      6.08887052      1.24670363
    N      0.53276765      1.17681610     -0.29210935
    N     -1.66846925      1.18182610     -0.32927116
    H     -2.69780420      3.46912115      0.60847717
    H     -2.99060076      6.53372423      2.25431408
    H     -3.92268468      5.39044009      1.25596797
    H     -3.31389284      6.90788749      0.54826189
    H      1.62004490      1.48667223     -0.20574174
    C      0.12868861     -0.10375154     -0.64435168
    H     -2.61988014      1.53882998     -0.32081225
    C     -1.28751520     -0.12391870     -0.63264473
    C      0.87188939     -1.24762242     -0.97516886
    C     -2.02137588     -1.28575181     -0.88942932
    H      1.96374065     -1.21122726     -1.02352385
    C      0.14313409     -2.40843054     -1.23332622
    H     -3.11408139     -1.29295748     -0.87636235
    C     -1.29256158     -2.47217503     -1.11102504
    H      0.67586326     -3.29709109     -1.58377461
    C     -2.00087262     -3.77255697     -1.21889207
    C     -1.45343631     -4.93437417     -0.60260620
    C     -3.21653996     -3.85665999     -1.93033610
    H     -0.51171623     -4.84126426     -0.05606450
    C     -2.10863029     -6.16879477     -0.62976586
    H     -3.62440196     -2.97906717     -2.44226912
    C     -3.83591587     -5.10927481     -1.99886044
    H     -1.67774518     -7.05224312     -0.15094854
    C     -3.34681727     -6.24970309     -1.29072564
    N     -4.95511070     -5.57151407     -2.67683743
    N     -4.24130037     -7.30892683     -1.38860851
    H     -5.55900413     -5.02742934     -3.28686244
    C     -5.10099521     -6.91923859     -2.37103300
    C     -6.09582436     -7.78724632     -3.06866008
    H     -6.02218178     -8.80379854     -2.65779958
    H     -5.90411119     -7.83182528     -4.15545986
    H     -7.12754684     -7.42305910     -2.92008890
    H      4.66485102     -1.41923938     -0.59593323
    O      3.96873600     -0.79023818     -0.31708853
    S      3.94988852      0.41878243     -1.52631512
    O      5.36646356      0.75517008     -1.78932559
    O      3.19244160      1.50881567     -0.75107859
    O      3.13671440     -0.13276469     -2.64150193
    C      3.54329972      1.07118586      3.84839652
    C      3.38181424      1.67773785      2.46185365
    O      2.02842318      2.13088295      2.33143076
    C      4.35810235      2.84212774      2.18463226
    C      5.82092820      2.42525837      2.20292087
    O      4.07451340      3.41922296      0.90260753
    H      2.76401711      0.32281804      4.02780449
    H      3.43226496      1.83577897      4.62390516
    H      4.51538722      0.58587734      3.96415288
    H      3.50866091      0.89526699      1.70522278
    H      1.99395426      3.05818607      2.62474428
    H      4.19847091      3.64204903      2.91649136
    H      6.00397551      1.61250271      1.49126019
    H      6.13274269      2.09752667      3.19776942
    H      6.46002620      3.26117891      1.89811834
    H      3.75594870      2.70782534      0.31895441
