67
Energy:    -62.40026227
    H      5.73622077      4.14517169      1.32737287
    C      5.02111780      3.75242227      0.59922135
    C      3.84276647      3.15264130      1.05801207
    C      5.29221504      3.85105097     -0.77284996
    H      3.64663951      3.08290854      2.13304721
    C      2.91613674      2.64480553      0.11939544
    H      6.22081963      4.32354304     -1.10878263
    C      4.38137696      3.35112494     -1.72740585
    C      1.68373566      2.01577524      0.57963612
    C      3.19828280      2.75273958     -1.26346169
    C      4.67868637      3.46214077     -3.20425540
    N      1.19544535      2.03729794      1.82833478
    N      0.82373217      1.29285744     -0.20992125
    H      2.49194798      2.36865474     -2.00723514
    H      4.79854320      4.51763648     -3.50650061
    H      3.87296055      3.02753362     -3.81547348
    H      5.61691107      2.94176670     -3.46135114
    H      1.65010302      2.54240023      2.73596911
    C      0.03552467      1.27617615      1.87819097
    H      0.98726342      1.07891655     -1.18981555
    C     -0.23646231      0.82419501      0.56368988
    C     -0.80105182      0.93845586      2.95351082
    C     -1.37288534      0.07238995      0.25115532
    H     -0.55975312      1.25594172      3.97173460
    C     -1.93519418      0.18729158      2.64581237
    H     -1.57617495     -0.27064445     -0.76630659
    C     -2.28542325     -0.18026024      1.29581671
    H     -2.56420658     -0.17503261      3.46397896
    C     -3.59274774     -0.82085195      1.00447851
    C     -4.77233261     -0.35938956      1.65635734
    C     -3.66642300     -1.88521351      0.08101794
    H     -4.68770933      0.46765633      2.36561610
    C     -6.03349015     -0.89307485      1.37622757
    H     -2.76011657     -2.27443603     -0.39407205
    C     -4.92553810     -2.44955387     -0.15031537
    H     -6.93101381     -0.52812561      1.88285596
    C     -6.12369718     -1.91774488      0.41787741
    N     -5.34605093     -3.54308059     -0.89414550
    N     -7.24143621     -2.55136179     -0.11205188
    H     -4.75587142     -4.16569654     -1.43901570
    C     -6.72596467     -3.63464474     -0.75771211
    C     -7.49787259     -4.80358045     -1.27496782
    H     -8.56184856     -4.64834377     -1.04810946
    H     -7.17100307     -5.74696748     -0.80268377
    H     -7.38493489     -4.91352600     -2.36781459
    H     -0.41002016      2.47046241      6.42624463
    O     -0.03049942      2.65195786      5.54250462
    S      1.46899523      1.83008027      5.52384899
    O      2.11409736      2.12827359      6.82151612
    O      2.11583269      2.55697396      4.33384191
    O      1.15358017      0.41386378      5.20144830
    C      2.40620629     -3.37154272     -1.77096508
    C      1.51029161     -2.24322656     -2.26160091
    O      0.36967004     -2.17517186     -1.39651769
    C      2.22076484     -0.87251873     -2.30831090
    C      3.38726101     -0.82629991     -3.28356702
    O      1.28475417      0.14738641     -2.68344625
    H      1.82732940     -4.29481871     -1.66148452
    H      2.82109156     -3.13940769     -0.78489787
    H      3.22719292     -3.56406060     -2.46580019
    H      1.11796088     -2.49498797     -3.25333364
    H      0.57713258     -1.55431075     -0.67637688
    H      2.57333132     -0.60331046     -1.30621420
    H      3.06452854     -1.10948482     -4.29162905
    H      4.19628558     -1.49260297     -2.97392290
    H      3.78567212      0.19172266     -3.35436706
    H      0.63731445     -0.25094242     -3.29203228
