67
Energy:    -62.35075890
    H      6.00108810      3.05733278      2.57848674
    C      5.31939008      2.91081472      1.73607992
    C      4.04699230      2.37910016      1.97487171
    C      5.72563494      3.25171848      0.43817748
    H      3.74560789      2.11733712      2.99451701
    C      3.16330600      2.18930187      0.88831010
    H      6.72595572      3.66538042      0.27493492
    C      4.85989665      3.07090669     -0.66115565
    C      1.83418203      1.63548274      1.11858564
    C      3.58247106      2.54008285     -0.41737109
    C      5.30313042      3.44188735     -2.05676275
    N      1.23699201      1.46288042      2.30674032
    N      0.97999253      1.19834847      0.13629702
    H      2.91181698      2.40407887     -1.27256406
    H      5.56090076      4.51400675     -2.11924016
    H      4.51644117      3.24206862     -2.80030663
    H      6.20121739      2.87375237     -2.35309946
    H      1.65596719      1.71399951      3.32999053
    C      0.00385895      0.85508039      2.11394518
    H      1.21042743      1.16919641     -0.85302392
    C     -0.19087047      0.71574368      0.71793560
    C     -0.95985230      0.41118102      3.03288042
    C     -1.36609483      0.18760605      0.17547421
    H     -0.78213235      0.48367499      4.10943151
    C     -2.13320039     -0.11759347      2.49542643
    H     -1.50893991      0.08548924     -0.90313389
    C     -2.39321970     -0.15813983      1.07733301
    H     -2.87010172     -0.55862627      3.17277309
    C     -3.72792529     -0.56163328      0.56734574
    C     -4.90785332     -0.10128210      1.21938917
    C     -3.82704401     -1.39947207     -0.56370450
    H     -4.80295926      0.54808484      2.09204822
    C     -6.18664496     -0.40882515      0.74618711
    H     -2.92651404     -1.79207966     -1.04692398
    C     -5.11157077     -1.74694281     -0.99570113
    H     -7.08396198     -0.04726939      1.25560698
    C     -6.29471588     -1.19900549     -0.41159384
    N     -5.57384909     -2.60714397     -1.98173749
    N     -7.41881496     -1.57051776     -1.13961574
    H     -5.00438536     -3.17371559     -2.60427557
    C     -6.96241280     -2.55508796     -1.96327137
    C     -7.80158813     -3.49154225     -2.76865583
    H     -8.85978037     -3.25665911     -2.58791545
    H     -7.62105592     -4.54382805     -2.48585253
    H     -7.59981480     -3.39056771     -3.84951136
    H     -0.73413787      1.14765093      6.77005784
    O     -0.25718864      1.45679119      5.97323621
    S      1.14275090      0.47876650      5.88406228
    O      1.69229078      0.42649181      7.25675645
    O      1.97018982      1.34722277      4.92280344
    O      0.71144012     -0.79325066      5.24763368
    C      2.16584849     -3.21363909     -2.31998263
    C      1.44030683     -1.90605345     -2.60334298
    O      0.24616259     -1.88135506     -1.81123976
    C      2.29575757     -0.65409728     -2.30905777
    C      3.53694497     -0.54801142     -3.18208333
    O      1.50927488      0.52902116     -2.50584384
    H      1.48380634     -4.06096589     -2.44796229
    H      2.52050711     -3.24648363     -1.28485776
    H      3.01585092     -3.35548839     -2.99173604
    H      1.10634690     -1.89383019     -3.64697240
    H      0.45915673     -1.45582352     -0.96231785
    H      2.59134569     -0.64668306     -1.25381055
    H      3.26990115     -0.57139924     -4.24447667
    H      4.24112469     -1.35878741     -2.97927009
    H      4.04720772      0.40529001     -3.00612227
    H      0.87514530      0.35002901     -3.22282535
