67
Energy:    -62.33462082
    H      6.02733038      2.99412445      2.60072217
    C      5.34245462      2.86402520      1.75819717
    C      4.06759080      2.33635617      1.99277262
    C      5.74713137      3.22158026      0.46429142
    H      3.76747383      2.06140635      3.00931647
    C      3.17980102      2.16776143      0.90605917
    H      6.74943260      3.63170218      0.30429690
    C      4.87730726      3.06205305     -0.63511119
    C      1.84805769      1.61844976      1.13195605
    C      3.59743479      2.53523080     -0.39551614
    C      5.31888090      3.45090022     -2.02637413
    N      1.25313480      1.43191289      2.31914169
    N      0.98858554      1.20084312      0.14578704
    H      2.92362978      2.41576733     -1.25070284
    H      5.58282878      4.52228644     -2.07383035
    H      4.52897291      3.26667128     -2.77053142
    H      6.21276339      2.88190735     -2.33357797
    H      1.67641225      1.66548733      3.34477378
    C      0.01589330      0.83428323      2.12094922
    H      1.21611367      1.18488606     -0.84450702
    C     -0.18350881      0.71663846      0.72360334
    C     -0.94789385      0.38259979      3.03600354
    C     -1.36333516      0.20346211      0.17678910
    H     -0.76677830      0.43820792      4.11299328
    C     -2.12583394     -0.13129802      2.49418144
    H     -1.50975787      0.11805980     -0.90279176
    C     -2.38999984     -0.14945575      1.07639102
    H     -2.86346545     -0.57789788      3.16707097
    C     -3.72847556     -0.53754227      0.56433185
    C     -4.90385081     -0.07989118      1.22642136
    C     -3.83567877     -1.35806051     -0.57861622
    H     -4.79270240      0.55594447      2.10822239
    C     -6.18574352     -0.37290942      0.75239354
    H     -2.93882834     -1.74881431     -1.07011066
    C     -5.12342950     -1.69157358     -1.01201337
    H     -7.07949286     -0.01360774      1.26962019
    C     -6.30168996     -1.14532942     -0.41655675
    N     -5.59351709     -2.53444599     -2.00925896
    N     -7.42997554     -1.49947237     -1.14675564
    H     -5.02914136     -3.09514444     -2.64166965
    C     -6.98169159     -2.47449400     -1.98607938
    C     -7.82862182     -3.39404776     -2.80274092
    H     -8.88490051     -3.15562260     -2.61555983
    H     -7.65355118     -4.45142288     -2.53593927
    H     -7.62923577     -3.27837981     -3.88256643
    H     -0.70750956      1.06269384      6.78293795
    O     -0.23093600      1.38070484      5.98938918
    S      1.16293002      0.39587311      5.88187641
    O      1.71593484      0.32018471      7.25208549
    O      1.99284772      1.27348475      4.93112701
    O      0.72233251     -0.86408686      5.22806246
    C      2.10685967     -3.22549189     -2.36495249
    C      1.41302250     -1.89779275     -2.63381862
    O      0.20722192     -1.86338368     -1.85994590
    C      2.28932872     -0.66991479     -2.30185910
    C      3.54613745     -0.57301730     -3.15333822
    O      1.53063082      0.53297413     -2.48755975
    H      1.40960760     -4.05573789     -2.52004641
    H      2.44429454     -3.28569396     -1.32530908
    H      2.96430948     -3.37212298     -3.02613108
    H      1.09598905     -1.85847281     -3.68204795
    H      0.41544677     -1.45884228     -0.99965487
    H      2.56822390     -0.68902621     -1.24222414
    H      3.29556094     -0.57033257     -4.21998868
    H      4.23014225     -1.40210850     -2.95558781
    H      4.07309204      0.36583009     -2.95085754
    H      0.90440294      0.38114149     -3.21763268
