67
Energy:    -62.28825694
    H      6.00064221      3.03860859      2.57897658
    C      5.31953490      2.89355117      1.73583948
    C      4.04476795      2.36708526      1.97362272
    C      5.72886617      3.23107783      0.43802413
    H      3.74098206      2.10790666      2.99321558
    C      3.16184046      2.17918798      0.88611425
    H      6.73099924      3.64064756      0.27558046
    C      4.86393870      3.05207992     -0.66224366
    C      1.83027405      1.63082481      1.11533411
    C      3.58414060      2.52653108     -0.41947579
    C      5.31050822      3.41940448     -2.05775444
    N      1.23079918      1.46218258      2.30290671
    N      0.97574539      1.19562487      0.13248174
    H      2.91413521      2.39192722     -1.27539844
    H      5.57250254      4.49043285     -2.12136434
    H      4.52406964      3.22158971     -2.80209890
    H      6.20679822      2.84739502     -2.35207129
    H      1.64934278      1.71310598      3.32638152
    C     -0.00440761      0.85887972      2.10926316
    H      1.20741736      1.16420689     -0.85648086
    C     -0.19776634      0.71835340      0.71318230
    C     -0.97108065      0.41998301      3.02749021
    C     -1.37427954      0.19400218      0.16984217
    H     -0.79455297      0.49328830      4.10418251
    C     -2.14572690     -0.10500534      2.48916092
    H     -1.51604425      0.09093681     -0.90881825
    C     -2.40396325     -0.14652083      1.07076977
    H     -2.88525080     -0.54224723      3.16610695
    C     -3.73951929     -0.54556809      0.55951218
    C     -4.91855024     -0.07975856      1.20929792
    C     -3.84032790     -1.38459101     -0.57051046
    H     -4.81234126      0.57041226      2.08119903
    C     -6.19787248     -0.38302089      0.73476914
    H     -2.94066168     -1.78134404     -1.05194968
    C     -5.12559572     -1.72770122     -1.00378639
    H     -7.09448151     -0.01729538      1.24245616
    C     -6.30741263     -1.17438840     -0.42206249
    N     -5.58984537     -2.58748261     -1.98926252
    N     -7.43194254     -1.54257115     -1.15110977
    H     -5.02172415     -3.15711403     -2.61023300
    C     -6.97822160     -2.53004101     -1.97277307
    C     -7.81990640     -3.46436858     -2.77800887
    H     -8.87742951     -3.22515094     -2.59904578
    H     -7.64382625     -4.51694893     -2.49349984
    H     -7.61626813     -3.36567778     -3.85872557
    H     -0.74762935      1.16077554      6.76394922
    O     -0.26840154      1.46696326      5.96735473
    S      1.12787071      0.48341848      5.88145677
    O      1.67532873      0.43093287      7.25497451
    O      1.95997012      1.34733568      4.92013079
    O      0.69252017     -0.78780853      5.24620107
    C      2.20107291     -3.22595456     -2.28583794
    C      1.46920293     -1.92631481     -2.58880140
    O      0.26826580     -1.90156779     -1.80703699
    C      2.31372257     -0.66561282     -2.30033808
    C      3.56150748     -0.56009974     -3.16397793
    O      1.52101761      0.51004720     -2.51595662
    H      1.52583305     -4.07916710     -2.41074788
    H      2.54717963     -3.24572443     -1.24749104
    H      3.05765617     -3.36894087     -2.94893526
    H      1.14400384     -1.92711170     -3.63526493
    H      0.47121753     -1.46587675     -0.96081248
    H      2.60032220     -0.64532087     -1.24278293
    H      3.30361799     -0.59624385     -4.22827376
    H      4.26936708     -1.36394250     -2.94687981
    H      4.06386181      0.39840710     -2.99362894
    H      0.89418664      0.31937604     -3.23633738
