67
Energy:    -62.27591638
    H      5.98696878      3.08487776      2.57936539
    C      5.30556236      2.93762391      1.73685095
    C      4.03578040      2.39926680      1.97468159
    C      5.70958899      3.28420270      0.43975935
    H      3.73611013      2.13312845      2.99369930
    C      3.15247407      2.20849883      0.88798084
    H      6.70788534      3.70301558      0.27725963
    C      4.84418234      3.10254228     -0.65969498
    C      1.82606592      1.64779678      1.11725712
    C      3.56937084      2.56503781     -0.41686668
    C      5.28501017      3.47965510     -2.05442031
    N      1.23025644      1.46894269      2.30518022
    N      0.97346307      1.20953106      0.13409459
    H      2.89895294      2.42838680     -1.27214168
    H      5.53773135      4.55314660     -2.11389300
    H      4.49891020      3.27832215     -2.79817893
    H      6.18560431      2.91659498     -2.35282690
    H      1.64853968      1.71903979      3.32896367
    C     -0.00011094      0.85594159      2.11118593
    H      1.20356029      1.18433836     -0.85541367
    C     -0.19485160      0.71976001      0.71486660
    C     -0.96129649      0.40486292      3.02926999
    C     -1.36785032      0.18770919      0.17141289
    H     -0.78340460      0.47505325      4.10594534
    C     -2.13241359     -0.12783056      2.49082093
    H     -1.51073011      0.08806569     -0.90742192
    C     -2.39291620     -0.16546457      1.07273593
    H     -2.86692030     -0.57427776      3.16722080
    C     -3.72596213     -0.57371411      0.56219320
    C     -4.90772034     -0.12079092      1.21612141
    C     -3.82169853     -1.40871107     -0.57124741
    H     -4.80544995      0.52651639      2.09062013
    C     -6.18528437     -0.43293691      0.74261740
    H     -2.91957180     -1.79569094     -1.05602566
    C     -5.10479114     -1.76093095     -1.00365984
    H     -7.08404040     -0.07706964      1.25350397
    C     -6.29020861     -1.22024022     -0.41741079
    N     -5.56350937     -2.62041190     -1.99198422
    N     -7.41290392     -1.59488852     -1.14599153
    H     -4.99169762     -3.18249707     -2.61643404
    C     -6.95229250     -2.57490955     -1.97272360
    C     -7.78746067     -3.51293248     -2.78044453
    H     -8.84665410     -3.28353195     -2.59853062
    H     -7.60187193     -4.56518070     -2.50079206
    H     -7.58667720     -3.40786821     -3.86109457
    H     -0.73724932      1.13149741      6.76847247
    O     -0.26213164      1.44518524      5.97233421
    S      1.14232617      0.47398738      5.87966286
    O      1.69275883      0.42028902      7.25194431
    O      1.96523419      1.34910191      4.92055550
    O      0.71666869     -0.79817624      5.23973050
    C      2.17992191     -3.21660846     -2.29537712
    C      1.45130890     -1.91422972     -2.59440337
    O      0.25082408     -1.88848968     -1.81197660
    C      2.29926790     -0.65654010     -2.30289631
    C      3.54690127     -0.55191844     -3.16686349
    O      1.50953834      0.52177884     -2.51488846
    H      1.50238920     -4.06770429     -2.42229569
    H      2.52648468     -3.24013912     -1.25726077
    H      3.03580266     -3.36001207     -2.95929094
    H      1.12559585     -1.91129807     -3.64070324
    H      0.45533073     -1.45565979     -0.96465887
    H      2.58643811     -0.63990631     -1.24543208
    H      3.28839629     -0.58446087     -4.23112623
    H      4.25276005     -1.35820483     -2.95232764
    H      4.05184703      0.40479842     -2.99413066
    H      0.88185719      0.33473031     -3.23547865
